<?xml version="1.0" encoding="UTF-8"?>

<!-- generated on 2024-06-06 14:11:18 by Eclipse SUMO polyconvert Version 1.19.0
<configuration xmlns:xsi="http://www.w3.org/2001/XMLSchema-instance" xsi:noNamespaceSchemaLocation="http://sumo.dlr.de/xsd/polyconvertConfiguration.xsd">

    <input>
        <net-file value="osm.net.xml.gz"/>
        <osm-files value="osm_bbox.osm.xml.gz"/>
        <osm.keep-full-type value="true"/>
        <type-file value="${SUMO_HOME}/data/typemap/osmPolyconvert.typ.xml"/>
    </input>

    <output>
        <output-file value="osm.poly.xml.gz"/>
    </output>

    <report>
        <verbose value="true"/>
    </report>

</configuration>
-->

<additional xmlns:xsi="http://www.w3.org/2001/XMLSchema-instance" xsi:noNamespaceSchemaLocation="http://sumo.dlr.de/xsd/additional_file.xsd">
    <location netOffset="-565450.27,-3871881.08" convBoundary="-0.00,-0.00,5114.89,4566.38" origBoundary="135.717338,34.987182,135.773382,35.028368" projParameter="+proj=utm +zone=53 +ellps=WGS84 +datum=WGS84 +units=m +no_defs"/>

    <poly id="1001322979" type="building.retail" color="255,230,230" fill="1" layer="-1.00" shape="4535.407090,1991.390158 4528.025568,1991.266930 4527.973668,1994.460632 4535.355188,1994.583860 4535.407090,1991.390158"/>
    <poly id="1021070798" type="building.yes" color="255,230,230" fill="1" layer="-1.00" shape="4486.362096,2490.213926 4514.264468,2490.428134 4514.150187,2457.776432 4486.366333,2457.563136 4486.362096,2490.213926"/>
    <poly id="1021070798#1" type="tourism.hotel" color="207,245,201" fill="1" layer="-2.00" shape="4486.362096,2490.213926 4514.264468,2490.428134 4514.150187,2457.776432 4486.366333,2457.563136 4486.362096,2490.213926"/>
    <poly id="102292291" type="leisure.park" color="207,245,201" fill="1" layer="-2.00" shape="4586.499703,1970.100498 4586.524884,1994.134080 4586.464686,1996.030115 4588.827689,1996.092638 4588.765530,1998.243742 4588.760501,1998.898050 4592.875822,1998.929680 4595.777107,1999.007432 4600.503113,1999.132484 4600.343077,2010.454785 4601.766386,2010.487907 4604.567380,2010.553801 4607.195086,2010.607273 4615.516028,2010.793242 4616.544961,1974.290805 4607.306718,1973.532162 4607.404614,1971.481149 4606.071352,1970.417290 4602.221238,1970.310059 4601.741372,1971.005080 4600.637514,1970.963323 4599.812603,1970.247182 4596.519022,1970.155322 4595.215102,1971.210000 4586.499703,1970.100498"/>
    <poly id="105022872" type="building.yes" color="255,230,230" fill="1" layer="-1.00" shape="4083.230085,2600.519116 4083.375993,2581.399995 4112.537134,2581.633677 4112.391249,2600.741708 4083.230085,2600.519116"/>
    <poly id="105022872#1" type="tourism.hotel" color="207,245,201" fill="1" layer="-2.00" shape="4083.230085,2600.519116 4083.375993,2581.399995 4112.537134,2581.633677 4112.391249,2600.741708 4083.230085,2600.519116"/>
    <poly id="105022873" type="building.yes" color="255,230,230" fill="1" layer="-1.00" shape="3767.443490,2351.304157 3767.758598,2319.432138 3775.140187,2319.510394 3775.411821,2292.163014 3788.897772,2292.287658 3788.548186,2327.486598 3776.978525,2327.365421 3776.741200,2351.396971 3767.443490,2351.304157"/>
    <poly id="105022873#1" type="tourism.hotel" color="207,245,201" fill="1" layer="-2.00" shape="3767.443490,2351.304157 3767.758598,2319.432138 3775.140187,2319.510394 3775.411821,2292.163014 3788.897772,2292.287658 3788.548186,2327.486598 3776.978525,2327.365421 3776.741200,2351.396971 3767.443490,2351.304157"/>
    <poly id="105022875" type="building.hotel" color="255,230,230" fill="1" layer="-1.00" shape="3802.632774,2310.070467 3802.819239,2296.341708 3810.227968,2296.453471 3810.443229,2281.338605 3814.649494,2281.392758 3814.768898,2272.887168 3831.456935,2273.124940 3831.634168,2260.616079 3846.789378,2260.831133 3846.090924,2310.678119 3802.632774,2310.070467"/>
    <poly id="105022875#1" type="tourism.hotel" color="207,245,201" fill="1" layer="-2.00" shape="3802.632774,2310.070467 3802.819239,2296.341708 3810.227968,2296.453471 3810.443229,2281.338605 3814.649494,2281.392758 3814.768898,2272.887168 3831.456935,2273.124940 3831.634168,2260.616079 3846.789378,2260.831133 3846.090924,2310.678119 3802.632774,2310.070467"/>
    <poly id="1128417588" type="amenity.parking" color="184,184,179" fill="1" layer="-1.00" shape="4794.107323,2201.662676 4834.203790,2202.814739 4834.613964,2188.677339 4800.392883,2187.681476 4800.232626,2193.081380 4794.366392,2192.914161 4794.107323,2201.662676"/>
    <poly id="1130882833" type="amenity.place_of_worship" color="237,199,199" fill="1" layer="-1.00" shape="4532.234039,1811.608954 4532.259036,1804.788413 4545.134258,1804.920560 4545.114638,1795.593196 4574.975146,1795.401135 4574.964889,1805.049899 4593.627965,1804.893869 4593.567300,1817.536715 4575.496697,1817.786022 4575.277914,1811.817585 4556.862337,1811.831375 4543.859373,1811.698230 4532.234039,1811.608954"/>
    <poly id="1148594310" type="leisure.pitch" color="207,245,201" fill="1" layer="-2.00" shape="3774.413200,2048.838594 3773.882166,2021.440765 3813.601580,2020.677868 3814.132495,2048.075701 3774.413200,2048.838594"/>
    <poly id="1148594310#1" type="sport.tennis" color="79,230,125" fill="1" layer="-2.00" shape="3774.413200,2048.838594 3773.882166,2021.440765 3813.601580,2020.677868 3814.132495,2048.075701 3774.413200,2048.838594"/>
    <poly id="1149041612" type="building.yes" color="255,230,230" fill="1" layer="-1.00" shape="4752.674641,2317.096357 4754.061876,2296.933175 4756.095718,2297.070842 4756.876169,2285.786587 4759.767299,2285.986313 4760.126479,2280.820843 4771.517805,2281.596240 4771.023676,2288.878981 4765.642645,2288.515887 4763.637239,2317.846261 4752.674641,2317.096357"/>
    <poly id="1149041613" type="building.yes" color="255,230,230" fill="1" layer="-1.00" shape="4687.018691,2331.430030 4687.204197,2327.483192 4706.825473,2328.366223 4706.649083,2332.313131 4687.018691,2331.430030"/>
    <poly id="1149041614" type="building.yes" color="255,230,230" fill="1" layer="-1.00" shape="4662.916676,2329.403500 4662.305014,2324.696365 4673.015875,2324.956235 4673.480345,2329.817507 4662.916676,2329.403500"/>
    <poly id="1149041615" type="amenity.bicycle_parking" color="237,199,199" fill="1" layer="-1.00" shape="4669.913370,2322.581145 4662.298119,2322.034559 4659.925646,2304.238017 4668.483900,2304.381504 4668.060815,2309.557575 4670.951768,2309.779452 4669.913370,2322.581145"/>
    <poly id="1149041616" type="leisure.outdoor_seating" color="207,245,201" fill="1" layer="-2.00" shape="4619.288114,2320.106673 4619.494738,2324.089799 4653.928000,2322.347241 4653.721306,2318.375204 4619.288114,2320.106673"/>
    <poly id="1149041617" type="building.yes" color="255,230,230" fill="1" layer="-1.00" shape="4642.922762,2352.052024 4642.386660,2342.265960 4648.913775,2341.916908 4649.449870,2351.702972 4642.922762,2352.052024"/>
    <poly id="1149044575" type="building.yes" color="255,230,230" fill="1" layer="-1.00" shape="4658.523453,2302.652359 4657.660991,2297.333309 4662.585455,2296.550491 4663.448000,2301.858452 4658.523453,2302.652359"/>
    <poly id="1149044576" type="building.yes" color="255,230,230" fill="1" layer="-1.00" shape="4658.465250,2293.613044 4658.144139,2284.349894 4662.945211,2284.187202 4663.266317,2293.450353 4658.465250,2293.613044"/>
    <poly id="1149044577" type="building.yes" color="255,230,230" fill="1" layer="-1.00" shape="4664.416144,2301.743904 4664.182031,2290.662559 4669.165165,2290.556725 4669.399187,2301.649160 4664.416144,2301.743904"/>
    <poly id="1149044578" type="building.yes" color="255,230,230" fill="1" layer="-1.00" shape="4664.661885,2289.967541 4664.527862,2283.667029 4669.173391,2283.558598 4669.307325,2289.870199 4664.661885,2289.967541"/>
    <poly id="1149044579" type="building.yes" color="255,230,230" fill="1" layer="-1.00" shape="4711.868286,2252.955455 4712.136193,2247.789282 4692.616053,2246.785025 4692.348157,2251.951199 4711.868286,2252.955455"/>
    <poly id="1149044580" type="amenity.place_of_worship" color="237,199,199" fill="1" layer="-1.00" shape="4619.055568,2239.986152 4619.550171,2207.705125 4647.700467,2206.646206 4648.120212,2231.558996 4635.150847,2231.880681 4635.079469,2232.856107 4626.022618,2233.462982 4625.908683,2239.972308 4619.055568,2239.986152"/>
    <poly id="1149044581" type="leisure.garden" color="207,245,201" fill="1" layer="-2.00" shape="4621.331187,2216.990589 4621.051393,2209.468989 4630.882073,2209.100963 4631.161774,2216.633653 4621.331187,2216.990589"/>
    <poly id="1149044582" type="leisure.garden" color="207,245,201" fill="1" layer="-2.00" shape="4635.855238,2230.466497 4635.575456,2222.944897 4645.415162,2222.588046 4645.685811,2230.109577 4635.855238,2230.466497"/>
    <poly id="1149044583" type="amenity.parking" color="184,184,179" fill="1" layer="-1.00" shape="4466.405711,2538.992643 4466.458565,2548.752805 4478.758924,2548.747385 4478.734052,2538.909802 4466.405711,2538.992643"/>
    <poly id="1149044584" type="building.yes" color="255,230,230" fill="1" layer="-1.00" shape="4488.674684,2581.230325 4488.637087,2575.429635 4513.941327,2575.291186 4513.969699,2581.102896 4488.674684,2581.230325"/>
    <poly id="1149044585" type="amenity.parking" color="184,184,179" fill="1" layer="-1.00" shape="4452.273398,2593.427943 4452.335464,2587.716743 4477.964822,2588.013225 4477.893616,2593.724355 4452.273398,2593.427943"/>
    <poly id="1149044586" type="building.yes" color="255,230,230" fill="1" layer="-1.00" shape="4224.957069,2562.263364 4224.977950,2555.952957 4251.576264,2556.034396 4251.555449,2562.333713 4224.957069,2562.263364"/>
    <poly id="1149044587" type="amenity.place_of_worship" color="237,199,199" fill="1" layer="-1.00" shape="4116.829433,2601.474303 4118.123825,2586.112581 4152.424466,2586.052915 4151.772502,2602.118250 4116.829433,2601.474303"/>
    <poly id="1149045926" type="leisure.garden" color="207,245,201" fill="1" layer="-2.00" shape="3885.166071,2501.146127 3885.690525,2468.199898 3906.958147,2468.539210 3906.433616,2501.485439 3885.166071,2501.146127"/>
    <poly id="1149045927" type="building.yes" color="255,230,230" fill="1" layer="-1.00" shape="3887.512897,2461.348675 3887.457627,2449.425843 3906.264824,2449.336077 3906.319985,2461.269999 3887.512897,2461.348675"/>
    <poly id="1149045928" type="building.yes" color="255,230,230" fill="1" layer="-1.00" shape="3946.923793,2479.523776 3946.956180,2450.111706 3979.486334,2450.148800 3979.462967,2479.560941 3946.923793,2479.523776"/>
    <poly id="1149045928#1" type="shop.mall" color="237,199,255" fill="1" layer="-1.00" shape="3946.923793,2479.523776 3946.956180,2450.111706 3979.486334,2450.148800 3979.462967,2479.560941 3946.923793,2479.523776"/>
    <poly id="1149045929" type="building.yes" color="255,230,230" fill="1" layer="-1.00" shape="3966.145577,2504.058465 3966.118126,2482.509185 3984.076015,2482.501835 3984.094383,2504.039956 3966.145577,2504.058465"/>
    <poly id="1149049590" type="amenity.social_facility" color="237,199,199" fill="1" layer="-1.00" shape="3901.052606,2233.772507 3901.142570,2209.961648 3919.675256,2210.036168 3919.585328,2233.835938 3901.052606,2233.772507"/>
    <poly id="1149049590#1" type="building.yes" color="255,230,230" fill="1" layer="-1.00" shape="3901.052606,2233.772507 3901.142570,2209.961648 3919.675256,2210.036168 3919.585328,2233.835938 3901.052606,2233.772507"/>
    <poly id="1149049592" type="leisure.playground" color="207,245,201" fill="1" layer="-2.00" shape="3659.499345,2046.225176 3659.329552,2022.889262 3670.599992,2022.808381 3670.698370,2036.306390 3665.441881,2036.344156 3665.513272,2046.182061 3659.499345,2046.225176"/>
    <poly id="1149049593" type="building.yes" color="255,230,230" fill="1" layer="-1.00" shape="3625.073367,2028.851369 3624.982231,2025.224052 3637.030044,2024.916119 3636.855395,2017.861172 3653.548858,2017.444303 3653.823659,2028.137727 3625.073367,2028.851369"/>
    <poly id="1149049598" type="natural.wood" color="140,196,107" fill="1" layer="-4.00" shape="3518.116796,2157.634931 3518.330562,2142.653148 3530.922338,2142.792819 3532.580138,2133.544718 3555.215817,2134.082087 3555.245812,2146.991773 3550.719954,2146.957502 3550.499082,2159.255306 3518.116796,2157.634931"/>
    <poly id="1149049600" type="landuse.grass" color="194,194,130" fill="1" layer="-3.00" shape="3359.913354,2054.838015 3360.596031,2021.227581 3386.833057,2017.388753 3385.592982,2054.710326 3359.913354,2054.838015"/>
    <poly id="1149049602" type="amenity.school" color="237,199,199" fill="1" layer="-2.00" shape="3318.995006,2070.610500 3318.797709,2041.130216 3358.750179,2040.899447 3359.116218,2020.218254 3387.703023,2015.776098 3386.555604,2055.327580 3361.512369,2055.770608 3360.971375,2070.616829 3318.995006,2070.610500"/>
    <poly id="1149049603" type="building.yes" color="255,230,230" fill="1" layer="-1.00" shape="3364.309256,1914.985562 3363.913434,1841.718130 3394.704260,1841.551413 3395.081585,1914.818713 3364.309256,1914.985562"/>
    <poly id="1149049603#1" type="tourism.hotel" color="207,245,201" fill="1" layer="-2.00" shape="3364.309256,1914.985562 3363.913434,1841.718130 3394.704260,1841.551413 3395.081585,1914.818713 3364.309256,1914.985562"/>
    <poly id="1181999491" type="man_made.torii" color="255,230,230" fill="0" layer="-1.00" shape="4122.894767,2588.677672 4123.752449,2588.684221"/>
    <poly id="1181999495" type="man_made.torii" color="255,230,230" fill="0" layer="-1.00" shape="4121.575069,2601.377450 4123.819385,2601.427860"/>
    <poly id="1202679665" type="landuse.construction" color="194,194,130" fill="1" layer="-3.00" shape="3729.597693,1861.433081 3729.628087,1845.407394 3737.156565,1845.420182 3737.135283,1861.445939 3729.597693,1861.433081"/>
    <poly id="1207645347" type="amenity.parking" color="184,184,179" fill="1" layer="-1.00" shape="3918.813165,1982.838457 3928.924889,1982.737982 3929.003084,1990.446551 3934.880771,1990.324941 3934.729586,2018.571571 3939.931426,2018.522453 3940.086166,2028.161371 3918.758714,2028.353900 3918.547784,2034.485401 3909.722298,2034.651128 3909.502905,2015.518158 3919.121765,2015.425014 3918.813165,1982.838457"/>
    <poly id="1212061152" type="amenity.university" color="237,199,199" fill="1" layer="-2.00" shape="3598.422432,1747.658016 3721.696401,1748.226808 3721.567295,1777.261017 3681.780988,1777.081130 3681.668964,1800.270722 3640.952004,1800.083952 3640.982555,1792.442762 3598.212422,1792.240619 3598.422432,1747.658016"/>
    <poly id="1213449029" type="amenity.parking" color="184,184,179" fill="1" layer="-1.00" shape="3913.185621,2378.076102 3921.369697,2378.216040 3921.676209,2360.728474 3913.492118,2360.588536 3913.185621,2378.076102"/>
    <poly id="1213449030" type="building.yes" color="255,230,230" fill="1" layer="-1.00" shape="3928.004214,2378.133466 3932.356595,2378.166606 3932.644462,2361.932137 3928.129014,2361.742487 3928.004214,2378.133466"/>
    <poly id="1226198706" type="leisure.garden" color="207,245,201" fill="1" layer="-2.00" shape="4560.274552,2661.144807 4589.636878,2662.479540 4589.132509,2673.488667 4559.770219,2672.153935 4560.274552,2661.144807"/>
    <poly id="1240805165" type="amenity.restaurant" color="237,199,199" fill="1" layer="-1.00" shape="3500.761797,2239.485314 3510.179330,2239.434582 3510.216695,2246.555030 3513.912500,2246.538638 3513.923591,2248.690298 3516.734223,2248.678299 3516.752004,2251.151637 3522.291230,2251.115928 3522.358210,2262.761567 3513.588631,2262.806099 3513.580706,2261.441895 3490.949433,2261.570092 3490.874065,2248.615700 3504.297712,2248.539819 3504.286954,2246.343798 3500.791891,2246.361714 3500.761797,2239.485314"/>
    <poly id="1240805165#1" type="building.restaurant" color="255,230,230" fill="1" layer="-1.00" shape="3500.761797,2239.485314 3510.179330,2239.434582 3510.216695,2246.555030 3513.912500,2246.538638 3513.923591,2248.690298 3516.734223,2248.678299 3516.752004,2251.151637 3522.291230,2251.115928 3522.358210,2262.761567 3513.588631,2262.806099 3513.580706,2261.441895 3490.949433,2261.570092 3490.874065,2248.615700 3504.297712,2248.539819 3504.286954,2246.343798 3500.791891,2246.361714 3500.761797,2239.485314"/>
    <poly id="1250672539" type="leisure.garden" color="207,245,201" fill="1" layer="-2.00" shape="3138.695443,1850.179332 3137.310808,1847.429537 3135.788406,1846.009575 3133.846670,1844.531005 3132.072801,1843.785678 3132.402548,1832.708666 3135.701717,1833.276932 3138.758961,1834.464452 3140.945738,1836.122316 3142.585931,1837.654071 3143.976076,1839.671930 3144.694502,1842.427802 3145.103678,1845.048260 3145.266062,1847.722313 3145.366323,1850.162996 3138.695443,1850.179332"/>
    <poly id="1250672540" type="natural.shrubbery" color="140,196,107" fill="1" layer="-4.00" shape="3131.641903,1861.028293 3131.560888,1854.816957 3143.560264,1854.907263 3143.645000,1859.410678 3140.941191,1860.976282 3136.531064,1861.309080 3131.641903,1861.028293"/>
    <poly id="1265549347" type="building.school" color="255,230,230" fill="1" layer="-1.00" shape="3202.186275,2026.432107 3267.828884,2027.115398 3268.086192,2002.673676 3269.564335,2002.695913 3269.609754,1997.882939 3269.668897,1992.460087 3268.181628,1992.437781 3268.306435,1980.727059 3202.663492,1980.043770 3202.553157,1991.055893 3201.713670,1991.049569 3201.663673,1995.263616 3201.600728,2001.196607 3202.449339,2001.202999 3202.186275,2026.432107"/>
    <poly id="1265549355" type="building.yes" color="255,230,230" fill="1" layer="-1.00" shape="3266.052552,2047.275788 3276.226549,2047.374692 3276.371515,2031.782414 3266.197418,2031.694600 3266.052552,2047.275788"/>
    <poly id="1265549356" type="amenity.bicycle_parking" color="237,199,199" fill="1" layer="-1.00" shape="3259.320846,2044.485654 3264.613405,2044.503379 3264.647723,2033.901033 3259.355158,2033.883308 3259.320846,2044.485654"/>
    <poly id="1265549356#1" type="building.yes" color="255,230,230" fill="1" layer="-1.00" shape="3259.320846,2044.485654 3264.613405,2044.503379 3264.647723,2033.901033 3259.355158,2033.883308 3259.320846,2044.485654"/>
    <poly id="1265549357" type="amenity.bicycle_parking" color="237,199,199" fill="1" layer="-1.00" shape="3255.819772,2045.291052 3258.658006,2045.256998 3258.559804,2035.285816 3255.721650,2035.308781 3255.819772,2045.291052"/>
    <poly id="1265549357#1" type="building.yes" color="255,230,230" fill="1" layer="-1.00" shape="3255.819772,2045.291052 3258.658006,2045.256998 3258.559804,2035.285816 3255.721650,2035.308781 3255.819772,2045.291052"/>
    <poly id="1265549358" type="building.yes" color="255,230,230" fill="1" layer="-1.00" shape="3179.450147,2036.774732 3185.070451,2036.894694 3185.137959,2033.989469 3179.517736,2033.858416 3179.450147,2036.774732"/>
    <poly id="1265549359" type="building.yes" color="255,230,230" fill="1" layer="-1.00" shape="3173.596940,2036.076309 3177.666777,2036.084776 3177.674606,2033.833445 3173.595643,2033.824910 3173.596940,2036.076309"/>
    <poly id="1265549360" type="landuse.forest" color="140,196,107" fill="1" layer="-3.00" shape="3184.737035,1989.080657 3184.174425,1991.083816 3185.618701,1993.179724 3189.672750,1994.075324 3192.873636,1993.145643 3194.304176,1989.795971 3197.725333,1989.910466 3200.198988,1988.609320 3201.634563,1985.803125 3201.749037,1982.720804 3200.761341,1980.583970 3199.001538,1977.975516 3196.774130,1976.871860 3193.993464,1976.529287 3191.299138,1978.050584 3190.923535,1979.456260 3191.778704,1981.015383 3191.803195,1983.821487 3190.690418,1986.175400 3189.536779,1987.896843 3186.752357,1988.053320 3184.737035,1989.080657"/>
    <poly id="1265549361" type="landuse.forest" color="140,196,107" fill="1" layer="-3.00" shape="3172.934807,1993.128567 3175.569744,1994.645638 3177.941539,1994.752223 3180.775675,1994.052679 3181.799288,1991.420828 3181.407461,1988.922494 3179.915220,1987.136762 3177.277861,1985.941299 3174.397347,1986.740311 3172.830753,1988.769182 3172.448389,1991.073145 3172.934807,1993.128567"/>
    <poly id="1265549363" type="landuse.forest" color="140,196,107" fill="1" layer="-3.00" shape="3172.776039,2054.203239 3169.128601,2052.634182 3169.233902,2025.318856 3173.031959,2022.641352 3172.776039,2054.203239"/>
    <poly id="1265549364" type="landuse.forest" color="140,196,107" fill="1" layer="-3.00" shape="3172.246507,2093.016313 3167.859789,2090.254996 3168.032227,2080.685116 3172.494365,2078.278787 3172.246507,2093.016313"/>
    <poly id="1265549365" type="landuse.forest" color="140,196,107" fill="1" layer="-3.00" shape="3184.791071,2020.678150 3184.785998,2017.716924 3192.806982,2017.744066 3192.240707,2031.137232 3194.220292,2031.218687 3195.754786,2032.239489 3196.243369,2034.006573 3195.663261,2035.909785 3194.104941,2036.840746 3191.723113,2036.856077 3190.592116,2035.572140 3190.079165,2033.405612 3190.809068,2033.422200 3191.113747,2020.836677 3184.791071,2020.678150"/>
    <poly id="1265549366" type="landuse.forest" color="140,196,107" fill="1" layer="-3.00" shape="3180.165364,2020.565678 3180.248197,2018.048739 3173.040076,2017.927913 3173.031959,2022.641352 3172.776039,2054.203239 3172.659598,2063.607182 3173.672116,2063.659169 3173.787080,2037.486246 3173.203259,2037.459668 3173.273246,2033.012869 3174.349975,2033.020977 3174.654632,2020.435454 3180.165364,2020.565678"/>
    <poly id="1265549367" type="landuse.forest" color="140,196,107" fill="1" layer="-3.00" shape="3172.568093,2076.970652 3173.599193,2076.978417 3173.723986,2066.465478 3172.702093,2066.446693 3172.568093,2076.970652"/>
    <poly id="1265549368" type="landuse.forest" color="140,196,107" fill="1" layer="-3.00" shape="3191.651703,2011.203008 3191.997298,2012.569753 3193.426724,2013.001963 3194.432462,2012.743364 3195.076798,2012.005148 3195.277601,1999.884648 3194.006136,1999.076548 3190.036823,1999.046650 3189.612318,1999.675616 3189.606805,2000.407554 3191.851353,2000.446641 3191.651703,2011.203008"/>
    <poly id="1265549369" type="landuse.forest" color="140,196,107" fill="1" layer="-3.00" shape="3172.467246,1992.204527 3173.708895,1992.125152 3174.203832,1974.871925 3192.754966,1974.978366 3192.760229,1974.279699 3203.454591,1974.360258 3263.533236,1974.757602 3263.593922,1973.970628 3172.171883,1973.259580 3172.467246,1992.204527"/>
    <poly id="1265549370" type="amenity.bicycle_parking" color="237,199,199" fill="1" layer="-1.00" shape="3204.637222,1979.692650 3263.327011,1980.323523 3263.351689,1978.260860 3204.661804,1977.641076 3204.637222,1979.692650"/>
    <poly id="1265549370#1" type="building.yes" color="255,230,230" fill="1" layer="-1.00" shape="3204.637222,1979.692650 3263.327011,1980.323523 3263.351689,1978.260860 3204.661804,1977.641076 3204.637222,1979.692650"/>
    <poly id="1265549371" type="amenity.bicycle_parking" color="237,199,199" fill="1" layer="-1.00" shape="3204.789951,1976.377715 3263.479762,1977.008589 3263.504440,1974.945925 3204.814532,1974.326141 3204.789951,1976.377715"/>
    <poly id="1265549371#1" type="building.yes" color="255,230,230" fill="1" layer="-1.00" shape="3204.789951,1976.377715 3263.479762,1977.008589 3263.504440,1974.945925 3204.814532,1974.326141 3204.789951,1976.377715"/>
    <poly id="1265549372" type="building.yes" color="255,230,230" fill="1" layer="-1.00" shape="3193.339563,1976.114010 3203.394680,1976.256297 3203.416671,1974.548512 3193.361552,1974.406225 3193.339563,1976.114010"/>
    <poly id="1267400953" type="amenity.place_of_worship" color="237,199,199" fill="1" layer="-1.00" shape="3896.328462,2281.381825 3896.461820,2265.057458 3896.927174,2265.060999 3897.867008,2265.068152 3897.911740,2259.190468 3904.308090,2259.239148 3904.328347,2256.577556 3907.895986,2256.615800 3908.007585,2243.152646 3908.016026,2242.043649 3908.590709,2242.070205 3916.684082,2242.153992 3924.121496,2242.099706 3939.458725,2242.382843 3956.593336,2242.701878 3962.889158,2242.772015 3962.854351,2244.945510 3962.281456,2259.059498 3960.045927,2259.042469 3959.970231,2262.990151 3959.862343,2263.976394 3959.812580,2264.519455 3959.793489,2267.025788 3957.192978,2267.005980 3957.100734,2277.918442 3955.202819,2277.903986 3955.209492,2277.027878 3934.414634,2276.858423 3934.220573,2299.947603 3929.996067,2299.893256 3920.752880,2299.822883 3920.743424,2301.064960 3919.319991,2301.054123 3914.119411,2300.959080 3914.150576,2299.262454 3896.140198,2298.925741 3896.328462,2281.381825"/>
    <poly id="1267400953#1" type="landuse.religious" color="194,194,130" fill="1" layer="-3.00" shape="3896.328462,2281.381825 3896.461820,2265.057458 3896.927174,2265.060999 3897.867008,2265.068152 3897.911740,2259.190468 3904.308090,2259.239148 3904.328347,2256.577556 3907.895986,2256.615800 3908.007585,2243.152646 3908.016026,2242.043649 3908.590709,2242.070205 3916.684082,2242.153992 3924.121496,2242.099706 3939.458725,2242.382843 3956.593336,2242.701878 3962.889158,2242.772015 3962.854351,2244.945510 3962.281456,2259.059498 3960.045927,2259.042469 3959.970231,2262.990151 3959.862343,2263.976394 3959.812580,2264.519455 3959.793489,2267.025788 3957.192978,2267.005980 3957.100734,2277.918442 3955.202819,2277.903986 3955.209492,2277.027878 3934.414634,2276.858423 3934.220573,2299.947603 3929.996067,2299.893256 3920.752880,2299.822883 3920.743424,2301.064960 3919.319991,2301.054123 3914.119411,2300.959080 3914.150576,2299.262454 3896.140198,2298.925741 3896.328462,2281.381825"/>
    <poly id="1270195903" type="building.yes" color="255,230,230" fill="1" layer="-1.00" shape="4588.203080,1860.072397 4594.105944,1860.250851 4594.191810,1857.390130 4588.288859,1857.222766 4588.203080,1860.072397"/>
    <poly id="1270195904" type="building.yes" color="255,230,230" fill="1" layer="-1.00" shape="4599.399393,1860.169540 4602.520575,1860.138077 4602.503085,1857.664733 4599.381901,1857.696196 4599.399393,1860.169540"/>
    <poly id="1270195905" type="building.yes" color="255,230,230" fill="1" layer="-1.00" shape="4603.263293,1863.238071 4609.130763,1863.272084 4609.162560,1857.948828 4603.285961,1857.914745 4603.263293,1863.238071"/>
    <poly id="1270195906" type="building.yes" color="255,230,230" fill="1" layer="-1.00" shape="4602.169097,1874.996814 4606.320547,1875.084179 4606.383304,1871.668749 4602.231767,1871.592474 4602.169097,1874.996814"/>
    <poly id="1270195907" type="building.yes" color="255,230,230" fill="1" layer="-1.00" shape="4606.603593,1875.064173 4607.753343,1875.073012 4608.891150,1873.074355 4608.901465,1871.732469 4606.647589,1871.715143 4606.603593,1875.064173"/>
    <poly id="1270195908" type="building.yes" color="255,230,230" fill="1" layer="-1.00" shape="4611.755205,1872.064945 4613.113979,1872.186297 4613.163450,1876.434387 4610.954858,1876.461770 4611.732612,1875.003787 4611.755205,1872.064945"/>
    <poly id="1270195909" type="building.yes" color="255,230,230" fill="1" layer="-1.00" shape="4611.707190,1871.188416 4613.340141,1871.256423 4613.231905,1863.969050 4611.653704,1863.901464 4611.707190,1871.188416"/>
    <poly id="1270195910" type="building.yes" color="255,230,230" fill="1" layer="-1.00" shape="4611.632041,1863.158225 4613.082662,1863.202649 4613.252360,1857.747366 4611.801737,1857.702942 4611.632041,1863.158225"/>
    <poly id="1285683223" type="building.yes" color="255,230,230" fill="1" layer="-1.00" shape="4743.319639,2160.956860 4755.571831,2161.350693 4755.680183,2157.946703 4743.427987,2157.552870 4743.319639,2160.956860"/>
    <poly id="1285683224" type="building.yes" color="255,230,230" fill="1" layer="-1.00" shape="4743.571350,2156.711086 4757.563038,2157.550855 4756.998190,2166.906999 4761.047854,2167.160013 4761.162923,2165.253311 4772.755736,2165.952624 4773.393446,2155.432525 4743.759173,2153.651518 4743.571350,2156.711086"/>
    <poly id="1289422959" type="building.yes" color="255,230,230" fill="1" layer="-1.00" shape="3253.912516,2098.555872 3253.956745,2092.689283 3185.594595,2092.096504 3185.550326,2097.974183 3253.912516,2098.555872"/>
    <poly id="162699013" type="building.yes" color="255,230,230" fill="1" layer="-1.00" shape="3123.835143,1845.853083 3123.824261,1842.448192 3123.233079,1839.759822 3121.595636,1837.862103 3120.068557,1837.063182 3117.509934,1836.311952 3114.280011,1836.243290 3102.517778,1836.165897 3102.379283,1857.004061 3123.732030,1857.131431 3123.835143,1845.853083"/>
    <poly id="162699013#1" type="tourism.hotel" color="207,245,201" fill="1" layer="-2.00" shape="3123.835143,1845.853083 3123.824261,1842.448192 3123.233079,1839.759822 3121.595636,1837.862103 3120.068557,1837.063182 3117.509934,1836.311952 3114.280011,1836.243290 3102.517778,1836.165897 3102.379283,1857.004061 3123.732030,1857.131431 3123.835143,1845.853083"/>
    <poly id="190862042" type="amenity.school" color="237,199,199" fill="1" layer="-2.00" shape="3254.803158,2100.248357 3182.557343,2099.171606 3182.648236,2093.161191 3172.246507,2093.016313 3172.494365,2078.278787 3172.568093,2076.970652 3172.702093,2066.446693 3172.659598,2063.607182 3172.776039,2054.203239 3173.031959,2022.641352 3173.040076,2017.927913 3172.970206,2015.088197 3172.950347,2014.089894 3172.880895,2011.194728 3172.563367,1997.617457 3172.516862,1995.310265 3172.471444,1992.858903 3172.467246,1992.204527 3172.448389,1991.073145 3172.171883,1973.259580 3263.593922,1973.970628 3271.988815,1974.033930 3276.642506,1974.069024 3276.583125,1981.942895 3274.328946,1981.970258 3274.987602,2003.535333 3277.515974,2032.489752 3277.364390,2047.749263 3255.482343,2047.684076 3254.803158,2100.248357"/>
    <poly id="190862053" type="building.roof" color="255,230,230" fill="1" layer="-1.00" shape="3175.680982,1979.873813 3179.542289,1983.340973 3184.170771,1978.240888 3180.309463,1974.773726 3175.680982,1979.873813"/>
    <poly id="190862055" type="building.apartments" color="255,230,230" fill="1" layer="-1.00" shape="3111.590107,1867.498499 3123.149380,1867.862732 3123.424926,1859.136516 3111.865641,1858.772282 3111.590107,1867.498499"/>