<?xml version="1.0" encoding="UTF-8"?>

<!-- generated on 2024-06-06 14:11:17 by Eclipse SUMO netconvert Version 1.19.0
<configuration xmlns:xsi="http://www.w3.org/2001/XMLSchema-instance" xsi:noNamespaceSchemaLocation="http://sumo.dlr.de/xsd/netconvertConfiguration.xsd">

    <input>
        <type-files value="${SUMO_HOME}/data/typemap/osmNetconvert.typ.xml"/>
        <osm-files value="osm_bbox.osm.xml.gz"/>
    </input>

    <output>
        <output-file value="osm.net.xml.gz"/>
        <output.street-names value="true"/>
        <output.original-names value="true"/>
    </output>

    <projection>
        <proj.utm value="true"/>
    </projection>

    <processing>
        <geometry.remove value="true"/>
        <roundabouts.guess value="true"/>
    </processing>

    <tls_building>
        <tls.discard-simple value="true"/>
        <tls.join value="true"/>
        <tls.guess-signals value="true"/>
        <tls.default-type value="actuated"/>
    </tls_building>

    <ramp_guessing>
        <ramps.guess value="true"/>
    </ramp_guessing>

    <junctions>
        <junctions.join value="true"/>
        <junctions.corner-detail value="5"/>
    </junctions>

</configuration>
-->

<net version="1.16" junctionCornerDetail="5" limitTurnSpeed="5.50" xmlns:xsi="http://www.w3.org/2001/XMLSchema-instance" xsi:noNamespaceSchemaLocation="http://sumo.dlr.de/xsd/net_file.xsd">

    <location netOffset="-565450.27,-3871881.08" convBoundary="0.00,0.00,5114.89,3636.87" origBoundary="135.717338,34.987182,135.773382,35.019973" projParameter="+proj=utm +zone=53 +ellps=WGS84 +datum=WGS84 +units=m +no_defs"/>

    <type id="highway.cycleway" priority="1" numLanes="1" speed="5.56" allow="bicycle" oneway="0" width="2.00"/>
    <type id="highway.footway" priority="1" numLanes="1" speed="2.78" allow="pedestrian" oneway="1" width="2.00"/>
    <type id="highway.path" priority="1" numLanes="1" speed="5.56" allow="pedestrian bicycle" oneway="0" width="2.00"/>
    <type id="highway.pedestrian" priority="1" numLanes="1" speed="2.78" allow="pedestrian" oneway="1" width="2.00"/>
    <type id="highway.primary" priority="12" numLanes="2" speed="27.78" disallow="tram rail_urban rail rail_electric rail_fast ship" oneway="0"/>
    <type id="highway.primary_link" priority="7" numLanes="1" speed="22.22" disallow="tram rail_urban rail rail_electric rail_fast ship" oneway="0"/>
    <type id="highway.residential" priority="3" numLanes="1" speed="13.89" disallow="tram rail_urban rail rail_electric rail_fast ship" oneway="0"/>
    <type id="highway.service" priority="1" numLanes="1" speed="5.56" allow="pedestrian delivery bicycle" oneway="0"/>
    <type id="highway.steps" priority="1" numLanes="1" speed="1.39" allow="pedestrian" oneway="1" width="2.00"/>
    <type id="highway.tertiary" priority="10" numLanes="1" speed="22.22" disallow="tram rail_urban rail rail_electric rail_fast ship" oneway="0"/>
    <type id="highway.trunk" priority="13" numLanes="2" speed="27.78" disallow="pedestrian bicycle tram rail_urban rail rail_electric rail_fast ship" oneway="0"/>
    <type id="highway.unclassified" priority="4" numLanes="1" speed="13.89" disallow="tram rail_urban rail rail_electric rail_fast ship" oneway="0"/>
    <type id="railway.rail" priority="20" numLanes="1" speed="44.44" allow="rail" oneway="1"/>
    <type id="railway.subway" priority="18" numLanes="1" speed="27.78" allow="rail_urban" oneway="1"/>

    <edge id=":10082943375_0" function="internal">
        <lane id=":10082943375_0_0" index="0" allow="pedestrian bicycle" speed="4.90" length="4.39" width="2.00" shape="4791.71,2057.08 4791.43,2055.79 4790.91,2054.85 4790.15,2054.25 4789.15,2054.01"/>
    </edge>
    <edge id=":10082943375_1" function="internal">
        <lane id=":10082943375_1_0" index="0" allow="pedestrian bicycle" speed="6.61" length="8.12" width="2.00" shape="4789.36,2050.81 4791.02,2051.28 4792.29,2052.45 4793.18,2054.31 4793.69,2056.87"/>
    </edge>
    <edge id=":10082943375_2" function="internal">
        <lane id=":10082943375_2_0" index="0" disallow="tram rail_urban rail rail_electric rail_fast ship" speed="3.65" length="4.67" shape="4789.36,2050.81 4790.51,2051.69 4790.85,2052.51 4790.40,2053.29 4789.15,2054.01"/>
    </edge>
    <edge id=":10250073471_0" function="internal">
        <lane id=":10250073471_0_0" index="0" disallow="tram rail_urban rail rail_electric rail_fast ship" speed="13.89" length="4.24" shape="3445.10,2103.83 3440.86,2103.80"/>
    </edge>
    <edge id=":10689815247_0" function="internal">
        <lane id=":10689815247_0_0" index="0" disallow="tram rail_urban rail rail_electric rail_fast ship" speed="13.89" length="5.18" shape="4619.70,2329.08 4614.52,2329.16"/>
    </edge>
    <edge id=":10689815247_1" function="internal">
        <lane id=":10689815247_1_0" index="0" disallow="tram rail_urban rail rail_electric rail_fast ship" speed="13.89" length="5.13" shape="4614.45,2325.95 4619.58,2325.88"/>
    </edge>
    <edge id=":10689901364_0" function="internal">
        <lane id=":10689901364_0_0" index="0" allow="pedestrian bicycle" speed="2.89" length="2.92" width="2.00" shape="4123.69,2600.12 4123.17,2600.86 4122.67,2601.10 4122.17,2600.84 4121.69,2600.08"/>
    </edge>
    <edge id=":10689901365_0" function="internal">
        <lane id=":10689901365_0_0" index="0" allow="pedestrian bicycle" speed="2.89" length="2.92" width="2.00" shape="4121.89,2590.19 4122.41,2589.45 4122.91,2589.21 4123.41,2589.47 4123.89,2590.23"/>
    </edge>
    <edge id=":10689933910_0" function="internal">
        <lane id=":10689933910_0_0" index="0" disallow="tram rail_urban rail rail_electric rail_fast ship" speed="13.89" length="5.00" shape="3723.16,2013.98 3723.18,2008.98"/>
    </edge>
    <edge id=":10689933924_0" function="internal">
        <lane id=":10689933924_0_0" index="0" allow="pedestrian delivery bicycle" speed="5.09" length="5.06" shape="3648.68,2107.97 3647.33,2108.15 3646.36,2108.74 3645.75,2109.72 3645.52,2111.10"/>
    </edge>
    <edge id=":10689933924_1" function="internal">
        <lane id=":10689933924_1_0" index="0" disallow="tram rail_urban rail rail_electric rail_fast ship" speed="13.89" length="9.40" shape="3648.68,2107.97 3639.28,2107.86"/>
    </edge>
    <edge id=":10689933924_2" function="internal">
        <lane id=":10689933924_2_0" index="0" allow="pedestrian delivery bicycle" speed="5.03" length="5.02" shape="3642.32,2111.02 3642.17,2109.65 3641.61,2108.67 3640.65,2108.07 3639.28,2107.86"/>
    </edge>
    <edge id=":10689933924_3" function="internal">
        <lane id=":10689933924_3_0" index="0" allow="pedestrian delivery bicycle" speed="3.65" length="4.67" shape="3642.32,2111.02 3643.16,2109.84 3643.97,2109.46 3644.76,2109.88 3645.52,2111.10"/>
    </edge>
    <edge id=":10689933925_0" function="internal">
        <lane id=":10689933925_0_0" index="0" allow="pedestrian delivery bicycle" speed="3.65" length="4.67" shape="3644.83,2137.39 3644.00,2138.57 3643.18,2138.94 3642.40,2138.52 3641.63,2137.30"/>
    </edge>
    <edge id=":10689933926_0" function="internal">
        <lane id=":10689933926_0_0" index="0" allow="pedestrian delivery bicycle" speed="5.04" length="5.00" shape="3550.97,2233.63 3551.15,2234.99 3551.72,2235.96 3552.69,2236.55 3554.04,2236.76"/>
    </edge>
    <edge id=":10689933926_1" function="internal">
        <lane id=":10689933926_1_0" index="0" allow="pedestrian delivery bicycle" speed="3.65" length="4.67" shape="3550.97,2233.63 3550.16,2234.82 3549.36,2235.21 3548.56,2234.81 3547.77,2233.60"/>
    </edge>
    <edge id=":10689933926_2" function="internal">
        <lane id=":10689933926_2_0" index="0" allow="pedestrian delivery bicycle" speed="5.04" length="5.00" shape="3544.64,2236.67 3546.00,2236.49 3546.97,2235.92 3547.56,2234.95 3547.77,2233.60"/>
    </edge>
    <edge id=":10689933926_3" function="internal">
        <lane id=":10689933926_3_0" index="0" disallow="tram rail_urban rail rail_electric rail_fast ship" speed="13.89" length="9.40" shape="3544.64,2236.67 3554.04,2236.76"/>
    </edge>
    <edge id=":10689933930_0" function="internal">
        <lane id=":10689933930_0_0" index="0" allow="pedestrian delivery bicycle" speed="5.56" length="8.05" shape="3532.44,2198.27 3531.41,2199.75 3530.85,2201.51 3530.74,2203.55 3531.09,2205.88"/>
    </edge>
    <edge id=":10689933930_1" function="internal">
        <lane id=":10689933930_1_0" index="0" allow="pedestrian delivery bicycle" speed="5.56" length="9.32" shape="3532.44,2198.27 3530.49,2200.06 3528.49,2201.33 3526.44,2202.08 3524.34,2202.32"/>
    </edge>
    <edge id=":10689933930_2" function="internal">
        <lane id=":10689933930_2_0" index="0" allow="pedestrian delivery bicycle" speed="3.71" length="4.91" shape="3532.44,2198.27 3531.15,2199.06 3530.21,2199.09 3529.62,2198.36 3529.39,2196.86"/>
    </edge>
    <edge id=":10689933930_3" function="internal">
        <lane id=":10689933930_3_0" index="0" allow="pedestrian delivery bicycle" speed="5.56" length="5.67" shape="3524.37,2199.12 3525.76,2198.99 3527.06,2198.57 3528.27,2197.86 3529.39,2196.86"/>
    </edge>
    <edge id=":10689933930_4" function="internal">
        <lane id=":10689933930_4_0" index="0" allow="pedestrian delivery bicycle" speed="5.56" length="10.35" shape="3524.37,2199.12 3526.72,2199.56 3528.62,2200.84 3530.08,2202.94 3531.09,2205.88"/>
    </edge>
    <edge id=":10689933930_5" function="internal">
        <lane id=":10689933930_5_0" index="0" allow="pedestrian delivery bicycle" speed="3.65" length="4.67" shape="3524.37,2199.12 3525.56,2199.93 3525.95,2200.74 3525.55,2201.53 3524.34,2202.32"/>
    </edge>
    <edge id=":10689933930_6" function="internal">
        <lane id=":10689933930_6_0" index="0" allow="pedestrian delivery bicycle" speed="5.54" length="5.10" shape="3527.72,2205.56 3527.23,2204.15 3526.50,2203.14 3525.54,2202.53 3524.34,2202.32"/>
    </edge>
    <edge id=":10689933930_7" function="internal">
        <lane id=":10689933930_7_0" index="0" allow="pedestrian delivery bicycle" speed="5.56" length="9.23" shape="3527.72,2205.56 3527.34,2202.94 3527.49,2200.62 3528.17,2198.59 3529.39,2196.86"/>
    </edge>
    <edge id=":10689933930_8" function="internal">
        <lane id=":10689933930_8_0" index="0" allow="pedestrian delivery bicycle" speed="3.72" length="4.93" shape="3527.72,2205.56 3528.69,2204.38 3529.57,2204.04 3530.37,2204.54 3531.09,2205.88"/>
    </edge>
    <edge id=":10689933949_0" function="internal">
        <lane id=":10689933949_0_0" index="0" allow="pedestrian delivery bicycle" speed="5.56" length="9.42" shape="3513.68,2202.20 3504.26,2202.08"/>
    </edge>
    <edge id=":10689933949_1" function="internal">
        <lane id=":10689933949_1_0" index="0" allow="pedestrian delivery bicycle" speed="5.56" length="10.17" shape="3513.68,2202.20 3510.92,2201.78 3508.97,2200.58 3507.81,2198.59 3507.45,2195.83"/>
    </edge>
    <edge id=":10689933949_2" function="internal">
        <lane id=":10689933949_2_0" index="0" allow="pedestrian delivery bicycle" speed="3.65" length="4.67" shape="3513.68,2202.20 3512.49,2201.39 3512.10,2200.59 3512.51,2199.79 3513.71,2199.00"/>
    </edge>
    <edge id=":10689933949_3" function="internal">
        <lane id=":10689933949_3_0" index="0" allow="pedestrian delivery bicycle" speed="5.04" length="5.00" shape="3510.65,2195.87 3510.83,2197.23 3511.40,2198.20 3512.36,2198.80 3513.71,2199.00"/>
    </edge>
    <edge id=":10689933949_4" function="internal">
        <lane id=":10689933949_4_0" index="0" allow="pedestrian delivery bicycle" speed="5.56" length="10.17" shape="3510.65,2195.87 3510.22,2198.62 3509.01,2200.58 3507.03,2201.73 3504.26,2202.08"/>
    </edge>
    <edge id=":10689933949_5" function="internal">
        <lane id=":10689933949_5_0" index="0" allow="pedestrian delivery bicycle" speed="3.65" length="4.67" shape="3510.65,2195.87 3509.84,2197.06 3509.03,2197.45 3508.24,2197.04 3507.45,2195.83"/>
    </edge>
    <edge id=":10689933949_6" function="internal">
        <lane id=":10689933949_6_0" index="0" allow="pedestrian delivery bicycle" speed="5.04" length="5.00" shape="3504.31,2198.88 3505.67,2198.71 3506.65,2198.14 3507.24,2197.18 3507.45,2195.83"/>
    </edge>
    <edge id=":10689933949_7" function="internal">
        <lane id=":10689933949_7_0" index="0" allow="pedestrian delivery bicycle" speed="5.56" length="9.41" shape="3504.31,2198.88 3513.71,2199.00"/>
    </edge>
    <edge id=":10689933949_8" function="internal">
        <lane id=":10689933949_8_0" index="0" allow="pedestrian delivery bicycle" speed="3.65" length="4.67" shape="3504.31,2198.88 3505.50,2199.70 3505.88,2200.51 3505.47,2201.30 3504.26,2202.08"/>
    </edge>
    <edge id=":10689933952_0" function="internal">
        <lane id=":10689933952_0_0" index="0" allow="pedestrian delivery bicycle" speed="5.03" length="5.01" shape="3497.58,2189.93 3496.21,2190.10 3495.23,2190.66 3494.64,2191.62 3494.43,2192.98"/>
    </edge>
    <edge id=":10689933952_1" function="internal">
        <lane id=":10689933952_1_0" index="0" allow="pedestrian delivery bicycle" speed="5.56" length="10.16" shape="3497.58,2189.93 3494.82,2189.48 3492.87,2188.27 3491.71,2186.28 3491.35,2183.54"/>
    </edge>
    <edge id=":10689933952_2" function="internal">
        <lane id=":10689933952_2_0" index="0" allow="pedestrian delivery bicycle" speed="3.65" length="4.67" shape="3497.58,2189.93 3496.40,2189.11 3496.01,2188.30 3496.43,2187.51 3497.65,2186.73"/>
    </edge>
    <edge id=":10689933952_3" function="internal">
        <lane id=":10689933952_3_0" index="0" allow="pedestrian delivery bicycle" speed="5.07" length="5.03" shape="3494.55,2183.58 3494.73,2184.93 3495.30,2185.91 3496.28,2186.51 3497.65,2186.73"/>
    </edge>
    <edge id=":10689933952_4" function="internal">
        <lane id=":10689933952_4_0" index="0" allow="pedestrian delivery bicycle" speed="5.56" length="9.40" shape="3494.55,2183.58 3494.43,2192.98"/>
    </edge>
    <edge id=":10689933952_5" function="internal">
        <lane id=":10689933952_5_0" index="0" allow="pedestrian delivery bicycle" speed="3.65" length="4.67" shape="3494.55,2183.58 3493.73,2184.77 3492.93,2185.16 3492.13,2184.75 3491.35,2183.54"/>
    </edge>
    <edge id=":10689933952_6" function="internal">
        <lane id=":10689933952_6_0" index="0" allow="pedestrian delivery bicycle" speed="5.56" length="9.40" shape="3491.23,2192.94 3491.35,2183.54"/>
    </edge>
    <edge id=":10689933952_7" function="internal">
        <lane id=":10689933952_7_0" index="0" allow="pedestrian delivery bicycle" speed="5.56" length="10.20" shape="3491.23,2192.94 3491.66,2190.17 3492.87,2188.22 3494.87,2187.07 3497.65,2186.73"/>
    </edge>
    <edge id=":10689933952_8" function="internal">
        <lane id=":10689933952_8_0" index="0" allow="pedestrian delivery bicycle" speed="3.65" length="4.67" shape="3491.23,2192.94 3492.04,2191.75 3492.85,2191.36 3493.64,2191.77 3494.43,2192.98"/>
    </edge>
    <edge id=":10689933953_0" function="internal">
        <lane id=":10689933953_0_0" index="0" allow="pedestrian delivery bicycle" speed="5.56" length="9.40" shape="3510.81,2183.87 3510.69,2193.27"/>
    </edge>
    <edge id=":10689933953_1" function="internal">
        <lane id=":10689933953_1_0" index="0" allow="pedestrian delivery bicycle" speed="5.56" length="10.20" shape="3510.81,2183.87 3510.38,2186.64 3509.16,2188.59 3507.16,2189.74 3504.39,2190.08"/>
    </edge>
    <edge id=":10689933953_2" function="internal">
        <lane id=":10689933953_2_0" index="0" allow="pedestrian delivery bicycle" speed="3.65" length="4.67" shape="3510.81,2183.87 3509.99,2185.06 3509.19,2185.45 3508.39,2185.04 3507.61,2183.83"/>
    </edge>
    <edge id=":10689933953_3" function="internal">
        <lane id=":10689933953_3_0" index="0" allow="pedestrian delivery bicycle" speed="5.03" length="5.01" shape="3504.45,2186.88 3505.82,2186.71 3506.80,2186.15 3507.40,2185.19 3507.61,2183.83"/>
    </edge>
    <edge id=":10689933953_4" function="internal">
        <lane id=":10689933953_4_0" index="0" allow="pedestrian delivery bicycle" speed="5.56" length="10.16" shape="3504.45,2186.88 3507.21,2187.33 3509.17,2188.54 3510.33,2190.52 3510.69,2193.27"/>
    </edge>
    <edge id=":10689933953_5" function="internal">
        <lane id=":10689933953_5_0" index="0" allow="pedestrian delivery bicycle" speed="3.65" length="4.67" shape="3504.45,2186.88 3505.64,2187.70 3506.02,2188.51 3505.60,2189.30 3504.39,2190.08"/>
    </edge>
    <edge id=":10689933953_6" function="internal">
        <lane id=":10689933953_6_0" index="0" allow="pedestrian delivery bicycle" speed="5.07" length="5.03" shape="3507.49,2193.23 3507.31,2191.87 3506.73,2190.90 3505.76,2190.30 3504.39,2190.08"/>
    </edge>
    <edge id=":10689933953_7" function="internal">
        <lane id=":10689933953_7_0" index="0" allow="pedestrian delivery bicycle" speed="5.56" length="9.40" shape="3507.49,2193.23 3507.61,2183.83"/>
    </edge>
    <edge id=":10689933953_8" function="internal">
        <lane id=":10689933953_8_0" index="0" allow="pedestrian delivery bicycle" speed="3.65" length="4.67" shape="3507.49,2193.23 3508.30,2192.04 3509.11,2191.65 3509.90,2192.06 3510.69,2193.27"/>
    </edge>
    <edge id=":10689933958_0" function="internal">
        <lane id=":10689933958_0_0" index="0" disallow="tram rail_urban rail rail_electric rail_fast ship" speed="13.89" length="5.00" shape="3316.65,2065.94 3316.70,2070.94"/>
    </edge>
    <edge id=":10692263864_0" function="internal">
        <lane id=":10692263864_0_0" index="0" allow="bicycle" speed="5.56" length="6.14" width="2.00" shape="3148.90,1795.51 3147.26,1801.43"/>
    </edge>
    <edge id=":10692263864_1" function="internal">
        <lane id=":10692263864_1_0" index="0" allow="bicycle" speed="2.89" length="1.27" width="2.00" shape="3148.90,1795.51 3148.21,1796.10 3147.85,1796.17"/>
    </edge>
    <edge id=":10692263864_4" function="internal">
        <lane id=":10692263864_4_0" index="0" allow="bicycle" speed="2.89" length="1.65" width="2.00" shape="3147.85,1796.17 3147.67,1796.21 3147.25,1795.83 3146.97,1794.98"/>
    </edge>
    <edge id=":10692263864_2" function="internal">
        <lane id=":10692263864_2_0" index="0" allow="bicycle" speed="5.56" length="6.15" width="2.00" shape="3145.33,1800.90 3146.97,1794.98"/>
    </edge>
    <edge id=":10692263864_3" function="internal">
        <lane id=":10692263864_3_0" index="0" allow="bicycle" speed="2.89" length="1.27" width="2.00" shape="3145.33,1800.90 3146.01,1800.31 3146.38,1800.24"/>
    </edge>
    <edge id=":10692263864_5" function="internal">
        <lane id=":10692263864_5_0" index="0" allow="bicycle" speed="2.89" length="1.65" width="2.00" shape="3146.38,1800.24 3146.56,1800.20 3146.98,1800.58 3147.26,1801.43"/>
    </edge>
    <edge id=":10692263887_0" function="internal">
        <lane id=":10692263887_0_0" index="0" allow="bicycle" speed="2.89" length="2.92" width="2.00" shape="3124.58,2605.83 3124.06,2606.57 3123.56,2606.81 3123.06,2606.55 3122.58,2605.79"/>
    </edge>
    <edge id=":10692263888_0" function="internal">
        <lane id=":10692263888_0_0" index="0" allow="bicycle" speed="5.56" length="3.42" width="2.00" shape="3126.50,1951.95 3126.36,1955.37"/>
    </edge>
    <edge id=":10692263888_1" function="internal">
        <lane id=":10692263888_1_0" index="0" allow="bicycle" speed="2.89" length="1.27" width="2.00" shape="3126.50,1951.95 3125.97,1952.68 3125.63,1952.83"/>
    </edge>
    <edge id=":10692263888_4" function="internal">
        <lane id=":10692263888_4_0" index="0" allow="bicycle" speed="2.89" length="1.65" width="2.00" shape="3125.63,1952.83 3125.46,1952.90 3124.97,1952.63 3124.50,1951.86"/>
    </edge>
    <edge id=":10692263888_2" function="internal">
        <lane id=":10692263888_2_0" index="0" allow="bicycle" speed="5.56" length="3.44" width="2.00" shape="3124.36,1955.30 3124.50,1951.86"/>
    </edge>
    <edge id=":10692263888_3" function="internal">
        <lane id=":10692263888_3_0" index="0" allow="bicycle" speed="2.89" length="1.28" width="2.00" shape="3124.36,1955.30 3124.88,1954.57 3125.23,1954.41"/>
    </edge>
    <edge id=":10692263888_5" function="internal">
        <lane id=":10692263888_5_0" index="0" allow="bicycle" speed="2.89" length="1.64" width="2.00" shape="3125.23,1954.41 3125.39,1954.33 3125.88,1954.60 3126.36,1955.37"/>
    </edge>
    <edge id=":10692263890_0" function="internal">
        <lane id=":10692263890_0_0" index="0" allow="bicycle" speed="5.56" length="3.45" width="2.00" shape="3125.49,1976.55 3125.35,1979.99"/>
    </edge>
    <edge id=":10692263890_1" function="internal">
        <lane id=":10692263890_1_0" index="0" allow="bicycle" speed="2.89" length="1.27" width="2.00" shape="3125.49,1976.55 3124.96,1977.28 3124.63,1977.43"/>
    </edge>
    <edge id=":10692263890_4" function="internal">
        <lane id=":10692263890_4_0" index="0" allow="bicycle" speed="2.89" length="1.65" width="2.00" shape="3124.63,1977.43 3124.45,1977.51 3123.96,1977.24 3123.49,1976.47"/>
    </edge>
    <edge id=":10692263890_2" function="internal">
        <lane id=":10692263890_2_0" index="0" allow="bicycle" speed="5.56" length="3.45" width="2.00" shape="3123.35,1979.91 3123.49,1976.47"/>
    </edge>
    <edge id=":10692263890_3" function="internal">
        <lane id=":10692263890_3_0" index="0" allow="bicycle" speed="2.89" length="1.27" width="2.00" shape="3123.35,1979.91 3123.88,1979.18 3124.22,1979.03"/>
    </edge>
    <edge id=":10692263890_5" function="internal">
        <lane id=":10692263890_5_0" index="0" allow="bicycle" speed="2.89" length="1.65" width="2.00" shape="3124.22,1979.03 3124.39,1978.95 3124.88,1979.22 3125.35,1979.99"/>
    </edge>
    <edge id=":10692263892_0" function="internal">
        <lane id=":10692263892_0_0" index="0" allow="bicycle" speed="5.56" length="5.01" width="2.00" shape="3117.96,2251.20 3117.84,2246.19"/>
    </edge>
    <edge id=":10692263892_1" function="internal">
        <lane id=":10692263892_1_0" index="0" allow="bicycle" speed="2.89" length="1.27" width="2.00" shape="3117.96,2251.20 3118.45,2250.43 3118.77,2250.26"/>
    </edge>
    <edge id=":10692263892_4" function="internal">
        <lane id=":10692263892_4_0" index="0" allow="bicycle" speed="2.89" length="1.65" width="2.00" shape="3118.77,2250.26 3118.94,2250.17 3119.44,2250.41 3119.96,2251.15"/>
    </edge>
    <edge id=":10692263892_2" function="internal">
        <lane id=":10692263892_2_0" index="0" allow="bicycle" speed="5.56" length="5.01" width="2.00" shape="3119.84,2246.14 3119.96,2251.15"/>
    </edge>
    <edge id=":10692263892_3" function="internal">
        <lane id=":10692263892_3_0" index="0" allow="bicycle" speed="2.89" length="1.27" width="2.00" shape="3119.84,2246.14 3119.36,2246.90 3119.03,2247.07"/>
    </edge>
    <edge id=":10692263892_5" function="internal">
        <lane id=":10692263892_5_0" index="0" allow="bicycle" speed="2.89" length="1.65" width="2.00" shape="3119.03,2247.07 3118.86,2247.16 3118.36,2246.92 3117.84,2246.19"/>
    </edge>
    <edge id=":10692263893_0" function="internal">
        <lane id=":10692263893_0_0" index="0" allow="bicycle" speed="5.56" length="5.04" width="2.00" shape="3120.58,2357.47 3120.45,2352.44"/>
    </edge>
    <edge id=":10692263893_1" function="internal">
        <lane id=":10692263893_1_0" index="0" allow="bicycle" speed="2.89" length="1.27" width="2.00" shape="3120.58,2357.47 3121.06,2356.71 3121.38,2356.54"/>
    </edge>
    <edge id=":10692263893_4" function="internal">
        <lane id=":10692263893_4_0" index="0" allow="bicycle" speed="2.89" length="1.65" width="2.00" shape="3121.38,2356.54 3121.55,2356.45 3122.06,2356.69 3122.58,2357.42"/>
    </edge>
    <edge id=":10692263893_2" function="internal">
        <lane id=":10692263893_2_0" index="0" allow="bicycle" speed="5.56" length="5.04" width="2.00" shape="3122.45,2352.39 3122.58,2357.42"/>
    </edge>
    <edge id=":10692263893_3" function="internal">
        <lane id=":10692263893_3_0" index="0" allow="bicycle" speed="2.89" length="1.27" width="2.00" shape="3122.45,2352.39 3121.97,2353.15 3121.65,2353.32"/>
    </edge>
    <edge id=":10692263893_5" function="internal">
        <lane id=":10692263893_5_0" index="0" allow="bicycle" speed="2.89" length="1.65" width="2.00" shape="3121.65,2353.32 3121.48,2353.41 3120.97,2353.17 3120.45,2352.44"/>
    </edge>
    <edge id=":10692263894_0" function="internal">
        <lane id=":10692263894_0_0" index="0" allow="bicycle" speed="5.56" length="5.09" width="2.00" shape="3120.92,2371.45 3120.79,2366.36"/>
    </edge>
    <edge id=":10692263894_1" function="internal">
        <lane id=":10692263894_1_0" index="0" allow="bicycle" speed="2.89" length="2.92" width="2.00" shape="3120.92,2371.45 3121.40,2370.69 3121.90,2370.42 3122.40,2370.66 3122.92,2371.40"/>
    </edge>
    <edge id=":10692263894_2" function="internal">
        <lane id=":10692263894_2_0" index="0" allow="bicycle" speed="5.56" length="5.09" width="2.00" shape="3122.79,2366.31 3122.92,2371.40"/>
    </edge>
    <edge id=":10692263894_3" function="internal">
        <lane id=":10692263894_3_0" index="0" allow="bicycle" speed="2.89" length="2.92" width="2.00" shape="3122.79,2366.31 3122.31,2367.07 3121.82,2367.33 3121.31,2367.10 3120.79,2366.36"/>
    </edge>
    <edge id=":10692263895_0" function="internal">
        <lane id=":10692263895_0_0" index="0" allow="bicycle" speed="5.56" length="5.09" width="2.00" shape="3121.27,2387.45 3121.16,2382.37"/>
    </edge>
    <edge id=":10692263895_1" function="internal">
        <lane id=":10692263895_1_0" index="0" allow="bicycle" speed="2.89" length="1.27" width="2.00" shape="3121.27,2387.45 3121.75,2386.69 3122.08,2386.52"/>
    </edge>
    <edge id=":10692263895_4" function="internal">
        <lane id=":10692263895_4_0" index="0" allow="bicycle" speed="2.89" length="1.65" width="2.00" shape="3122.08,2386.52 3122.24,2386.43 3122.75,2386.67 3123.26,2387.41"/>
    </edge>
    <edge id=":10692263895_2" function="internal">
        <lane id=":10692263895_2_0" index="0" allow="bicycle" speed="5.56" length="5.08" width="2.00" shape="3123.16,2382.32 3123.26,2387.41"/>
    </edge>
    <edge id=":10692263895_3" function="internal">
        <lane id=":10692263895_3_0" index="0" allow="bicycle" speed="2.89" length="1.27" width="2.00" shape="3123.16,2382.32 3122.67,2383.08 3122.35,2383.26"/>
    </edge>
    <edge id=":10692263895_5" function="internal">
        <lane id=":10692263895_5_0" index="0" allow="bicycle" speed="2.89" length="1.65" width="2.00" shape="3122.35,2383.26 3122.18,2383.35 3121.67,2383.11 3121.16,2382.37"/>
    </edge>
    <edge id=":10692263896_0" function="internal">
        <lane id=":10692263896_0_0" index="0" allow="bicycle" speed="7.16" length="10.67" width="2.00" shape="3142.55,1821.99 3138.25,1822.16 3135.15,1822.61 3133.27,1823.34 3132.61,1824.36"/>
    </edge>
    <edge id=":10692263896_1" function="internal">
        <lane id=":10692263896_1_0" index="0" disallow="tram rail_urban rail rail_electric rail_fast ship" speed="27.78" length="12.46" shape="3142.55,1821.39 3130.09,1821.45"/>
        <lane id=":10692263896_1_1" index="1" disallow="tram rail_urban rail rail_electric rail_fast ship" speed="27.78" length="12.46" shape="3142.53,1818.19 3130.07,1818.25"/>
    </edge>
    <edge id=":10692263896_3" function="internal">
        <lane id=":10692263896_3_0" index="0" allow="bicycle" speed="3.94" length="5.81" width="2.00" shape="3142.53,1817.59 3137.83,1814.17"/>
    </edge>
    <edge id=":10692263896_4" function="internal">
        <lane id=":10692263896_4_0" index="0" allow="bicycle" speed="5.56" length="12.81" width="2.00" shape="3141.13,1815.40 3137.49,1817.67 3134.86,1819.92 3133.23,1822.15 3132.61,1824.36"/>
    </edge>
    <edge id=":10692263896_5" function="internal">
        <lane id=":10692263896_5_0" index="0" allow="bicycle" speed="16.60" length="3.28" width="2.00" shape="3141.13,1815.40 3138.37,1816.95 3138.27,1817.00"/>
    </edge>
    <edge id=":10692263896_6" function="internal">
        <lane id=":10692263896_6_0" index="0" allow="bicycle" speed="3.84" length="5.01" width="2.00" shape="3141.13,1815.40 3139.85,1816.33 3138.87,1816.44 3138.19,1815.72 3137.86,1814.31"/>
    </edge>
    <edge id=":10692263896_10" function="internal">
        <lane id=":10692263896_10_0" index="0" allow="bicycle" speed="16.60" length="8.51" width="2.00" shape="3138.27,1817.00 3136.13,1818.02 3133.63,1818.64 3130.08,1818.85"/>
    </edge>
    <edge id=":10692263896_11" function="internal">
        <lane id=":10692263896_11_0" index="0" allow="bicycle" speed="3.84" length="0.14" width="2.00" shape="3137.86,1814.31 3137.83,1814.17"/>
    </edge>
    <edge id=":10692263896_7" function="internal">
        <lane id=":10692263896_7_0" index="0" allow="bicycle" speed="3.62" length="2.58" width="2.00" shape="3130.61,1824.25 3130.69,1823.49 3130.74,1822.77 3130.60,1822.25 3130.09,1822.05"/>
    </edge>
    <edge id=":10692263896_8" function="internal">
        <lane id=":10692263896_8_0" index="0" allow="bicycle" speed="5.56" length="13.84" width="2.00" shape="3130.61,1824.25 3131.26,1819.82 3132.69,1816.67 3134.87,1814.78 3137.83,1814.17"/>
    </edge>
    <edge id=":10692263896_9" function="internal">
        <lane id=":10692263896_9_0" index="0" allow="bicycle" speed="2.89" length="1.63" width="2.00" shape="3130.61,1824.25 3131.15,1823.53 3131.66,1823.31 3131.81,1823.39"/>
    </edge>
    <edge id=":10692263896_12" function="internal">
        <lane id=":10692263896_12_0" index="0" allow="bicycle" speed="2.89" length="1.29" width="2.00" shape="3131.81,1823.39 3132.15,1823.58 3132.61,1824.36"/>
    </edge>
    <edge id=":10692263897_0" function="internal">
        <lane id=":10692263897_0_0" index="0" allow="bicycle" speed="5.56" length="17.94" width="2.00" shape="3132.15,1832.68 3131.20,1850.60"/>
    </edge>
    <edge id=":10692263897_1" function="internal">