<?xml version="1.0" encoding="UTF-8"?>

<!-- generated on 2024-06-06 14:11:20.070124 by osmWebWizard.py v1_19_0+0000-baa66a0f364
<configuration>
    <net-file value="C:\2024-06-06-14-11-11\osm.net.xml.gz"/>
    <output-trip-file value="C:\2024-06-06-14-11-11\osm.passenger.trips.xml"/>
    <route-file value="C:\2024-06-06-14-11-11\osm.passenger.rou.xml"/>
    <prefix value="veh"/>
    <trip-attributes value="departLane=&quot;best&quot;"/>
    <fringe-start-attributes value="departSpeed=&quot;max&quot;"/>
    <vehicle-class value="passenger"/>
    <lanes value="True"/>
    <fringe-factor value="5"/>
    <allow-fringe.min-length value="1000.0"/>
    <via-edge-types value="highway.motorway,highway.motorway_link,highway.trunk_link,highway.primary_link,highway.secondary_link,highway.tertiary_link"/>
    <min-distance value="300.0"/>
    <min-distance.fringe value="10.0"/>
    <remove-loops value="True"/>
    <validate value="True"/>
    <insertion-density value="12.0"/>
</configuration>
-->

<!-- generated on 2024-06-06 14:11:19 by Eclipse SUMO duarouter Version 1.19.0
<configuration xmlns:xsi="http://www.w3.org/2001/XMLSchema-instance" xsi:noNamespaceSchemaLocation="http://sumo.dlr.de/xsd/duarouterConfiguration.xsd">

    <input>
        <net-file value="C:\2024-06-06-14-11-11\osm.net.xml.gz"/>
        <route-files value="C:\2024-06-06-14-11-11\osm.passenger.trips.xml"/>
    </input>

    <output>
        <output-file value="C:\2024-06-06-14-11-11\osm.passenger.trips.xml.tmp"/>
        <alternatives-output value="NUL"/>
        <write-trips value="true"/>
    </output>

    <processing>
        <remove-loops value="true"/>
    </processing>

    <time>
        <begin value="0.0"/>
        <end value="3600.0"/>
    </time>

    <report>
        <no-warnings value="true"/>
        <ignore-errors value="true"/>
        <no-step-log value="true"/>
    </report>

</configuration>
-->

<routes xmlns:xsi="http://www.w3.org/2001/XMLSchema-instance" xsi:noNamespaceSchemaLocation="http://sumo.dlr.de/xsd/routes_file.xsd">
    <vType id="veh_passenger" vClass="passenger"/>
    <trip id="veh0" type="veh_passenger" depart="0.00" departLane="best" from="462356798#16" to="-1101850040#1"/>
    <trip id="veh1" type="veh_passenger" depart="4.08" departLane="best" departSpeed="max" from="20927292#0" to="174762073#1"/>
    <trip id="veh2" type="veh_passenger" depart="8.15" departLane="best" from="476097676#8" to="465069434#16"/>
    <trip id="veh3" type="veh_passenger" depart="12.23" departLane="best" from="973565732#3" to="843908917#2"/>
    <trip id="veh4" type="veh_passenger" depart="16.31" departLane="best" from="966474543#4" to="-1101850043"/>
    <trip id="veh5" type="veh_passenger" depart="20.39" departLane="best" from="1101850040#2" to="174762070#1"/>
    <trip id="veh6" type="veh_passenger" depart="24.46" departLane="best" from="462356798#29" to="33884442#6"/>
    <trip id="veh7" type="veh_passenger" depart="28.54" departLane="best" from="772134673#1" to="-1021559402#2"/>
    <trip id="veh9" type="veh_passenger" depart="36.70" departLane="best" from="256843852#2" to="1132385603#9"/>
    <trip id="veh10" type="veh_passenger" depart="40.77" departLane="best" from="978085964#20" to="267676654#1"/>
    <trip id="veh11" type="veh_passenger" depart="44.85" departLane="best" departSpeed="max" from="-34634614#2" to="-974027184#0"/>
    <trip id="veh12" type="veh_passenger" depart="48.93" departLane="best" departSpeed="max" from="903981751#0" to="37902556#1"/>
    <trip id="veh13" type="veh_passenger" depart="53.01" departLane="best" from="753485948#0" to="476097676#3"/>
    <trip id="veh14" type="veh_passenger" depart="57.08" departLane="best" departSpeed="max" from="32062719#0" to="978085966#15"/>
    <trip id="veh15" type="veh_passenger" depart="61.16" departLane="best" from="268192659#0" to="34634614#2"/>
    <trip id="veh16" type="veh_passenger" depart="65.24" departLane="best" from="27580563#0" to="-256719892"/>
    <trip id="veh17" type="veh_passenger" depart="69.32" departLane="best" from="465069436#2" to="256838382#13"/>
    <trip id="veh18" type="veh_passenger" depart="73.39" departLane="best" from="-268601755" to="174762085#1"/>
    <trip id="veh19" type="veh_passenger" depart="77.47" departLane="best" from="-359278534#1" to="256464040#14"/>
    <trip id="veh20" type="veh_passenger" depart="81.55" departLane="best" from="462356798#13" to="268601755"/>
    <trip id="veh21" type="veh_passenger" depart="85.63" departLane="best" from="268192646#1" to="174762071#1"/>
    <trip id="veh22" type="veh_passenger" depart="89.70" departLane="best" departSpeed="max" from="20927292#0" to="978085966#9"/>
    <trip id="veh23" type="veh_passenger" depart="93.78" departLane="best" from="462356798#27" to="37902558#1"/>
    <trip id="veh24" type="veh_passenger" depart="97.86" departLane="best" from="-1101850040#2" to="592012033#1"/>
    <trip id="veh25" type="veh_passenger" depart="101.94" departLane="best" from="1101850037#1" to="273924625#6"/>
    <trip id="veh26" type="veh_passenger" depart="106.01" departLane="best" departSpeed="max" from="981951786#0" to="462356798#26"/>
    <trip id="veh27" type="veh_passenger" depart="110.09" departLane="best" from="33884442#5" to="465069437#1"/>
    <trip id="veh28" type="veh_passenger" depart="114.17" departLane="best" departSpeed="max" from="903981751#0" to="600354677#1"/>
    <trip id="veh29" type="veh_passenger" depart="118.25" departLane="best" from="174762072#1" to="-162566118#1"/>
    <trip id="veh30" type="veh_passenger" depart="122.32" departLane="best" departSpeed="max" from="256719892" to="256457175#3"/>
    <trip id="veh31" type="veh_passenger" depart="126.40" departLane="best" from="160731913#2" to="978085964#10"/>
    <trip id="veh32" type="veh_passenger" depart="130.48" departLane="best" from="964931603#1" to="273924632#11"/>
    <trip id="veh33" type="veh_passenger" depart="134.55" departLane="best" from="465066430#0" to="273924626#2"/>
    <trip id="veh34" type="veh_passenger" depart="138.63" departLane="best" from="977465923#5" to="27580563#9"/>
    <trip id="veh35" type="veh_passenger" depart="142.71" departLane="best" from="202548515#6" to="462356798#19"/>
    <trip id="veh36" type="veh_passenger" depart="146.79" departLane="best" from="33884442#9" to="247998818#2"/>
    <trip id="veh37" type="veh_passenger" depart="150.86" departLane="best" from="370673861#3" to="966474543#6"/>
    <trip id="veh39" type="veh_passenger" depart="159.02" departLane="best" from="966474543#11" to="30644771#5"/>
    <trip id="veh40" type="veh_passenger" depart="163.10" departLane="best" departSpeed="max" from="-34634614#2" to="256846172#0"/>
    <trip id="veh41" type="veh_passenger" depart="167.17" departLane="best" departSpeed="max" from="-37902558#1" to="462356798#11"/>
    <trip id="veh42" type="veh_passenger" depart="171.25" departLane="best" departSpeed="max" from="600354690#0" to="966474543#4"/>
    <trip id="veh43" type="veh_passenger" depart="175.33" departLane="best" departSpeed="max" from="-174762073#2" to="273924625#7"/>
    <trip id="veh44" type="veh_passenger" depart="179.41" departLane="best" from="978085966#12" to="843908917#0"/>
    <trip id="veh45" type="veh_passenger" depart="183.48" departLane="best" from="-1101850022#0" to="592012033#8"/>
    <trip id="veh47" type="veh_passenger" depart="191.64" departLane="best" from="462356798#13" to="462356798#27"/>
    <trip id="veh48" type="veh_passenger" depart="195.72" departLane="best" departSpeed="max" from="-37902558#1" to="27580563#12"/>
    <trip id="veh49" type="veh_passenger" depart="199.79" departLane="best" from="964931602#1" to="256449138#5"/>
    <trip id="veh50" type="veh_passenger" depart="203.87" departLane="best" departSpeed="max" from="30644605#0" to="160731913#16"/>
    <trip id="veh51" type="veh_passenger" depart="207.95" departLane="best" from="977465924#2" to="-843908924#1"/>
    <trip id="veh52" type="veh_passenger" depart="212.03" departLane="best" from="379428633#0" to="1132385603#9"/>
    <trip id="veh53" type="veh_passenger" depart="216.10" departLane="best" from="592012033#4" to="33884442#10"/>
    <trip id="veh54" type="veh_passenger" depart="220.18" departLane="best" departSpeed="max" from="600354682#0" to="32062719#13"/>
    <trip id="veh56" type="veh_passenger" depart="228.34" departLane="best" from="-1101850037#1" to="978085963#1"/>
    <trip id="veh57" type="veh_passenger" depart="232.41" departLane="best" from="966474541" to="772134673#5"/>
    <trip id="veh58" type="veh_passenger" depart="236.49" departLane="best" from="256464040#3" to="-37278117#1"/>
    <trip id="veh59" type="veh_passenger" depart="240.57" departLane="best" from="966474541" to="978085964#14"/>
    <trip id="veh60" type="veh_passenger" depart="244.64" departLane="best" departSpeed="max" from="-174762073#2" to="592012033#19"/>
    <trip id="veh61" type="veh_passenger" depart="248.72" departLane="best" from="476097671#5" to="1101850037#0"/>
    <trip id="veh62" type="veh_passenger" depart="252.80" departLane="best" departSpeed="max" from="30175871#0" to="34634614#1"/>
    <trip id="veh64" type="veh_passenger" depart="260.95" departLane="best" from="966474543#4" to="174762072#0"/>
    <trip id="veh65" type="veh_passenger" depart="265.03" departLane="best" departSpeed="max" from="32062719#0" to="476097676#3"/>
    <trip id="veh66" type="veh_passenger" depart="269.11" departLane="best" from="160731913#11" to="256843852#2"/>
    <trip id="veh67" type="veh_passenger" depart="273.19" departLane="best" departSpeed="max" from="981951786#0" to="465066430#0"/>
    <trip id="veh68" type="veh_passenger" depart="277.26" departLane="best" from="27580563#13" to="31714632#16"/>
    <trip id="veh69" type="veh_passenger" depart="281.34" departLane="best" from="465066430#1" to="174762073#1"/>
    <trip id="veh70" type="veh_passenger" depart="285.42" departLane="best" from="256843852#1" to="359278534#2"/>
    <trip id="veh71" type="veh_passenger" depart="289.50" departLane="best" departSpeed="max" from="-174762073#2" to="462356798#15"/>
    <trip id="veh72" type="veh_passenger" depart="293.57" departLane="best" from="174762072#1" to="-974027184#1"/>
    <trip id="veh73" type="veh_passenger" depart="297.65" departLane="best" from="907638076#1" to="465066430#1"/>
    <trip id="veh74" type="veh_passenger" depart="301.73" departLane="best" departSpeed="max" from="198690108#0" to="465069432#1"/>
    <trip id="veh75" type="veh_passenger" depart="305.81" departLane="best" from="160731913#22" to="-1101850040#0"/>
    <trip id="veh76" type="veh_passenger" depart="309.88" departLane="best" from="978085966#3" to="34634619#1"/>
    <trip id="veh78" type="veh_passenger" depart="318.04" departLane="best" from="753485948#0" to="160731913#5"/>
    <trip id="veh79" type="veh_passenger" depart="322.12" departLane="best" departSpeed="max" from="-34634718#10" to="27580563#0"/>
    <trip id="veh80" type="veh_passenger" depart="326.19" departLane="best" from="273924632#8" to="28622939#1"/>
    <trip id="veh81" type="veh_passenger" depart="330.27" departLane="best" from="476097676#5" to="465069434#1"/>
    <trip id="veh82" type="veh_passenger" depart="334.35" departLane="best" from="981951782#1" to="-974027184#0"/>
    <trip id="veh83" type="veh_passenger" depart="338.43" departLane="best" from="273924628#1" to="267676655#2"/>
    <trip id="veh84" type="veh_passenger" depart="342.50" departLane="best" from="907638076#2" to="202548488#8"/>
    <trip id="veh85" type="veh_passenger" depart="346.58" departLane="best" departSpeed="max" from="1184375310" to="27580563#21"/>
    <trip id="veh86" type="veh_passenger" depart="350.66" departLane="best" from="202548488#5" to="977465923#3"/>
    <trip id="veh87" type="veh_passenger" depart="354.74" departLane="best" from="27580563#2" to="843908917#1"/>
    <trip id="veh88" type="veh_passenger" depart="358.81" departLane="best" departSpeed="max" from="33884442#0" to="27015120#0"/>
    <trip id="veh89" type="veh_passenger" depart="362.89" departLane="best" from="984550390#0" to="772134674#1"/>
    <trip id="veh90" type="veh_passenger" depart="366.97" departLane="best" from="978085964#9" to="977465926#2"/>
    <trip id="veh91" type="veh_passenger" depart="371.04" departLane="best" departSpeed="max" from="903981751#0" to="1188558524"/>
    <trip id="veh92" type="veh_passenger" depart="375.12" departLane="best" departSpeed="max" from="30418924#0" to="174762073#0"/>
    <trip id="veh93" type="veh_passenger" depart="379.20" departLane="best" from="273924628#0" to="-37278117#1"/>
    <trip id="veh94" type="veh_passenger" depart="383.28" departLane="best" from="268192659#0" to="981951785#2"/>
    <trip id="veh95" type="veh_passenger" depart="387.35" departLane="best" from="202548515#6" to="600354688#0"/>
    <trip id="veh96" type="veh_passenger" depart="391.43" departLane="best" from="978085964#20" to="981951785#2"/>
    <trip id="veh97" type="veh_passenger" depart="395.51" departLane="best" from="33884442#13" to="476097669#1"/>
    <trip id="veh98" type="veh_passenger" depart="399.59" departLane="best" from="-1101850022#0" to="256838382#19"/>
    <trip id="veh99" type="veh_passenger" depart="403.66" departLane="best" from="32062719#11" to="592012033#11"/>
    <trip id="veh100" type="veh_passenger" depart="407.74" departLane="best" from="174762071#0" to="34634718#1"/>
    <trip id="veh102" type="veh_passenger" depart="415.90" departLane="best" from="1101850024" to="27580563#0"/>
    <trip id="veh103" type="veh_passenger" depart="419.97" departLane="best" from="-268601755" to="160731913#21"/>
    <trip id="veh104" type="veh_passenger" depart="424.05" departLane="best" departSpeed="max" from="37278108#0" to="465069431#4"/>
    <trip id="veh105" type="veh_passenger" depart="428.13" departLane="best" from="966474543#7" to="202548488#5"/>
    <trip id="veh106" type="veh_passenger" depart="432.21" departLane="best" departSpeed="max" from="37278108#0" to="380083522#4"/>
    <trip id="veh107" type="veh_passenger" depart="436.28" departLane="best" from="966474543#7" to="34634718#1"/>
    <trip id="veh108" type="veh_passenger" depart="440.36" departLane="best" from="31714632#10" to="978085966#12"/>
    <trip id="veh109" type="veh_passenger" depart="444.44" departLane="best" from="160731913#14" to="476097669#0"/>
    <trip id="veh110" type="veh_passenger" depart="448.52" departLane="best" departSpeed="max" from="198690108#0" to="273924626#2"/>
    <trip id="veh111" type="veh_passenger" depart="452.59" departLane="best" from="465069431#7" to="256838382#3"/>
    <trip id="veh112" type="veh_passenger" depart="456.67" departLane="best" departSpeed="max" from="-174762073#2" to="27580563#9"/>
    <trip id="veh113" type="veh_passenger" depart="460.75" departLane="best" from="-256846172#0" to="174762072#1"/>
    <trip id="veh114" type="veh_passenger" depart="464.83" departLane="best" from="202548515#6" to="978085963#13"/>
    <trip id="veh115" type="veh_passenger" depart="468.90" departLane="best" from="268192646#0" to="1148700850#0"/>
    <trip id="veh116" type="veh_passenger" depart="472.98" departLane="best" from="-843908917#2" to="46835723#1"/>
    <trip id="veh117" type="veh_passenger" depart="477.06" departLane="best" from="379428633#2" to="981951785#2"/>
    <trip id="veh118" type="veh_passenger" depart="481.13" departLane="best" from="462356798#9" to="-1021559402#3"/>
    <trip id="veh120" type="veh_passenger" depart="489.29" departLane="best" from="-465066430#3" to="978085964#1"/>
    <trip id="veh121" type="veh_passenger" depart="493.37" departLane="best" departSpeed="max" from="-37902556#1" to="34634614#2"/>
    <trip id="veh122" type="veh_passenger" depart="497.44" departLane="best" departSpeed="max" from="20927292#0" to="37902556#1"/>
    <trip id="veh123" type="veh_passenger" depart="501.52" departLane="best" from="476097671#5" to="174762070#1"/>
    <trip id="veh124" type="veh_passenger" depart="505.60" departLane="best" from="462356798#11" to="256457175#0"/>
    <trip id="veh125" type="veh_passenger" depart="509.68" departLane="best" from="30418924#10" to="-974027184#1"/>
    <trip id="veh126" type="veh_passenger" depart="513.75" departLane="best" departSpeed="max" from="903981751#0" to="-862871839"/>
    <trip id="veh127" type="veh_passenger" depart="517.83" departLane="best" from="273924632#8" to="256464040#13"/>
    <trip id="veh128" type="veh_passenger" depart="521.91" departLane="best" from="-1021559402#1" to="592012033#8"/>
    <trip id="veh129" type="veh_passenger" depart="525.99" departLane="best" from="462356798#14" to="247998818#2"/>
    <trip id="veh130" type="veh_passenger" depart="530.06" departLane="best" from="592012033#1" to="34634614#2"/>
    <trip id="veh131" type="veh_passenger" depart="534.14" departLane="best" from="27428942#2" to="1101850021"/>
    <trip id="veh132" type="veh_passenger" depart="538.22" departLane="best" departSpeed="max" from="-256846172#1" to="964931602#1"/>
    <trip id="veh133" type="veh_passenger" depart="542.30" departLane="best" departSpeed="max" from="974027184#0" to="33884442#7"/>
    <trip id="veh134" type="veh_passenger" depart="546.37" departLane="best" from="843908924#0" to="34634718#1"/>
    <trip id="veh135" type="veh_passenger" depart="550.45" departLane="best" from="256464040#7" to="966474543#7"/>
    <trip id="veh136" type="veh_passenger" depart="554.53" departLane="best" departSpeed="max" from="974027184#0" to="174762071#1"/>
    <trip id="veh137" type="veh_passenger" depart="558.61" departLane="best" from="202548488#4" to="-974027184#0"/>
    <trip id="veh138" type="veh_passenger" depart="562.68" departLane="best" departSpeed="max" from="600354682#0" to="964931603#1"/>
    <trip id="veh139" type="veh_passenger" depart="566.76" departLane="best" from="273924628#3" to="432399497#0"/>
    <trip id="veh140" type="veh_passenger" depart="570.84" departLane="best" from="-1101850022#0" to="978085963#1"/>
    <trip id="veh141" type="veh_passenger" depart="574.92" departLane="best" departSpeed="max" from="963225381#0" to="978085963#10"/>
    <trip id="veh142" type="veh_passenger" depart="578.99" departLane="best" from="772134673#2" to="964931603#1"/>
    <trip id="veh143" type="veh_passenger" depart="583.07" departLane="best" from="-1101850040#1" to="476097676#6"/>
    <trip id="veh144" type="veh_passenger" depart="587.15" departLane="best" from="256838382#5" to="978085963#10"/>
    <trip id="veh145" type="veh_passenger" depart="591.23" departLane="best" from="699186483#1" to="843908917#3"/>
    <trip id="veh146" type="veh_passenger" depart="595.30" departLane="best" from="600354682#7" to="-974027184#1"/>
    <trip id="veh147" type="veh_passenger" depart="599.38" departLane="best" departSpeed="max" from="963225381#0" to="772134681#4"/>
    <trip id="veh148" type="veh_passenger" depart="603.46" departLane="best" from="-174762070#0" to="753485948#7"/>
    <trip id="veh149" type="veh_passenger" depart="607.53" departLane="best" departSpeed="max" from="28622946#0" to="256838383#0"/>
    <trip id="veh150" type="veh_passenger" depart="611.61" departLane="best" from="66705748#0" to="174762085#0"/>
    <trip id="veh151" type="veh_passenger" depart="615.69" departLane="best" from="1101850040#1" to="162566118#1"/>
    <trip id="veh152" type="veh_passenger" depart="619.77" departLane="best" from="256838382#20" to="843908917#3"/>
    <trip id="veh153" type="veh_passenger" depart="623.84" departLane="best" from="978085964#6" to="256464040#15"/>
    <trip id="veh154" type="veh_passenger" depart="627.92" departLane="best" from="462356798#18" to="273924628#0"/>
    <trip id="veh155" type="veh_passenger" depart="632.00" departLane="best" from="981951782#0" to="330542687#1"/>
    <trip id="veh156" type="veh_passenger" depart="636.08" departLane="best" from="978085963#7" to="-1021559402#2"/>
    <trip id="veh157" type="veh_passenger" depart="640.15" departLane="best" from="978085963#4" to="160731913#16"/>
    <trip id="veh158" type="veh_passenger" depart="644.23" departLane="best" from="978085964#22" to="256457175#1"/>
    <trip id="veh159" type="veh_passenger" depart="648.31" departLane="best" departSpeed="max" from="-37902556#1" to="27580563#12"/>
    <trip id="veh160" type="veh_passenger" depart="652.39" departLane="best" from="476097676#4" to="256843852#3"/>
    <trip id="veh161" type="veh_passenger" depart="656.46" departLane="best" departSpeed="max" from="37278117#1" to="30709145#0"/>
    <trip id="veh162" type="veh_passenger" depart="660.54" departLane="best" from="273924628#6" to="34634622#2"/>
    <trip id="veh163" type="veh_passenger" depart="664.62" departLane="best" from="202548488#9" to="46835724#2"/>
    <trip id="veh164" type="veh_passenger" depart="668.70" departLane="best" from="1101850045" to="-977465926#2"/>
    <trip id="veh165" type="veh_passenger" depart="672.77" departLane="best" departSpeed="max" from="32062719#0" to="476097671#2"/>
    <trip id="veh166" type="veh_passenger" depart="676.85" departLane="best" from="476097671#2" to="465069432#1"/>
    <trip id="veh167" type="veh_passenger" depart="680.93" departLane="best" from="26694547#6" to="-465066430#1"/>
    <trip id="veh169" type="veh_passenger" depart="689.08" departLane="best" from="476097674#0" to="256838382#4"/>
    <trip id="veh170" type="veh_passenger" depart="693.16" departLane="best" from="256464040#8" to="273924625#1"/>
    <trip id="veh171" type="veh_passenger" depart="697.24" departLane="best" from="273924628#1" to="256838382#18"/>
    <trip id="veh172" type="veh_passenger" depart="701.32" departLane="best" from="465066430#4" to="273924632#3"/>
    <trip id="veh173" type="veh_passenger" depart="705.39" departLane="best" from="978085964#1" to="465069434#4"/>
    <trip id="veh174" type="veh_passenger" depart="709.47" departLane="best" departSpeed="max" from="974027184#0" to="379428633#2"/>
    <trip id="veh175" type="veh_passenger" depart="713.55" departLane="best" from="1101850045" to="256838382#1"/>
    <trip id="veh176" type="veh_passenger" depart="717.63" departLane="best" from="27580563#0" to="34634623#1"/>
    <trip id="veh177" type="veh_passenger" depart="721.70" departLane="best" from="462356798#9" to="27864926#2"/>
    <trip id="veh178" type="veh_passenger" depart="725.78" departLane="best" from="27580563#17" to="174762073#0"/>
    <trip id="veh180" type="veh_passenger" depart="733.93" departLane="best" from="66705748#0" to="1188558524"/>
    <trip id="veh181" type="veh_passenger" depart="738.01" departLane="best" departSpeed="max" from="-27015120#1" to="31714632#14"/>
    <trip id="veh182" type="veh_passenger" depart="742.09" departLane="best" from="462356798#10" to="267676654#1"/>
    <trip id="veh183" type="veh_passenger" depart="746.17" departLane="best" from="772134674#1" to="592012033#14"/>
    <trip id="veh184" type="veh_passenger" depart="750.24" departLane="best" from="465069433#0" to="174762073#1"/>
    <trip id="veh185" type="veh_passenger" depart="754.32" departLane="best" from="160731913#0" to="-1101850040#1"/>
    <trip id="veh186" type="veh_passenger" depart="758.40" departLane="best" from="202548488#1" to="296062481#2"/>
    <trip id="veh187" type="veh_passenger" depart="762.48" departLane="best" departSpeed="max" from="903981751#0" to="-465066430#2"/>
    <trip id="veh188" type="veh_passenger" depart="766.55" departLane="best" from="256843852#4" to="462356798#13"/>
    <trip id="veh189" type="veh_passenger" depart="770.63" departLane="best" departSpeed="max" from="1198160326#0" to="46835723#1"/>
    <trip id="veh190" type="veh_passenger" depart="774.71" departLane="best" from="160731913#1" to="202548488#3"/>
    <trip id="veh191" type="veh_passenger" depart="778.79" departLane="best" from="465066430#0" to="1021559402#2"/>
    <trip id="veh192" type="veh_passenger" depart="782.86" departLane="best" from="592012033#17" to="592012033#5"/>
    <trip id="veh194" type="veh_passenger" depart="791.02" departLane="best" from="1101850045" to="978085964#20"/>
    <trip id="veh195" type="veh_passenger" depart="795.10" departLane="best" departSpeed="max" from="31714632#0" to="-268601755"/>
    <trip id="veh196" type="veh_passenger" depart="799.17" departLane="best" from="202548488#4" to="772134677#5"/>
    <trip id="veh197" type="veh_passenger" depart="803.25" departLane="best" from="27580563#8" to="753485944#0"/>
    <trip id="veh198" type="veh_passenger" depart="807.33" departLane="best" from="465069431#10" to="981951785#2"/>
    <trip id="veh199" type="veh_passenger" depart="811.41" departLane="best" departSpeed="max" from="37278108#0" to="978085964#18"/>
    <trip id="veh201" type="veh_passenger" depart="819.56" departLane="best" from="592012033#5" to="30644606#1"/>
    <trip id="veh202" type="veh_passenger" depart="823.64" departLane="best" from="772134682#1" to="33884442#9"/>
    <trip id="veh203" type="veh_passenger" depart="827.72" departLane="best" departSpeed="max" from="974027184#0" to="548925358#0"/>
    <trip id="veh205" type="veh_passenger" depart="835.87" departLane="best" from="202548488#11" to="462356798#24"/>
    <trip id="veh206" type="veh_passenger" depart="839.95" departLane="best" from="592012033#8" to="31714632#19"/>
    <trip id="veh207" type="veh_passenger" depart="844.02" departLane="best" from="461646077#2" to="256464040#10"/>
    <trip id="veh208" type="veh_passenger" depart="848.10" departLane="best" departSpeed="max" from="-256846172#1" to="256464040#9"/>
    <trip id="veh209" type="veh_passenger" depart="852.18" departLane="best" departSpeed="max" from="20927292#0" to="256846172#1"/>
    <trip id="veh210" type="veh_passenger" depart="856.26" departLane="best" departSpeed="max" from="32062719#0" to="1101850042#1"/>
    <trip id="veh211" type="veh_passenger" depart="860.33" departLane="best" from="-174762073#0" to="46835723#0"/>
    <trip id="veh212" type="veh_passenger" depart="864.41" departLane="best" from="273924628#3" to="33884442#13"/>
    <trip id="veh213" type="veh_passenger" depart="868.49" departLane="best" from="273924632#12" to="174762070#1"/>
    <trip id="veh214" type="veh_passenger" depart="872.57" departLane="best" from="273924632#3" to="-974027184#1"/>
    <trip id="veh215" type="veh_passenger" depart="876.64" departLane="best" from="370673861#2" to="46835723#1"/>
    <trip id="veh216" type="veh_passenger" depart="880.72" departLane="best" from="907638075#2" to="592012033#23"/>
    <trip id="veh217" type="veh_passenger" depart="884.80" departLane="best" from="268192659#1" to="-1021559402#2"/>
    <trip id="veh218" type="veh_passenger" depart="888.88" departLane="best" departSpeed="max" from="26694547#0" to="592012033#15"/>
    <trip id="veh219" type="veh_passenger" depart="892.95" departLane="best" from="903981751#4" to="978085964#19"/>
    <trip id="veh220" type="veh_passenger" depart="897.03" departLane="best" from="273924632#13" to="476097671#2"/>
    <trip id="veh221" type="veh_passenger" depart="901.11" departLane="best" from="33884438#0" to="37902556#1"/>
    <trip id="veh222" type="veh_passenger" depart="905.19" departLane="best" from="-162566118#1" to="174762073#1"/>
    <trip id="veh223" type="veh_passenger" depart="909.26" departLane="best" from="27580563#12" to="1101850042#1"/>
    <trip id="veh224" type="veh_passenger" depart="913.34" departLane="best" from="256843852#0" to="465069436#1"/>
    <trip id="veh225" type="veh_passenger" depart="917.42" departLane="best" from="273924628#2" to="1148855988#1"/>
    <trip id="veh226" type="veh_passenger" depart="921.50" departLane="best" departSpeed="max" from="28957176#0" to="-1101850037#0"/>
    <trip id="veh227" type="veh_passenger" depart="925.57" departLane="best" from="256838382#14" to="-1101850040#2"/>
    <trip id="veh228" type="veh_passenger" depart="929.65" departLane="best" from="273924625#7" to="34634618#1"/>
    <trip id="veh229" type="veh_passenger" depart="933.73" departLane="best" from="1101850040#2" to="462356798#28"/>
    <trip id="veh230" type="veh_passenger" depart="937.81" departLane="best" departSpeed="max" from="-843908917#3" to="27864926#2"/>
    <trip id="veh231" type="veh_passenger" depart="941.88" departLane="best" departSpeed="max" from="-174762070#8" to="273924625#6"/>
    <trip id="veh233" type="veh_passenger" depart="950.04" departLane="best" from="592012033#4" to="273924625#6"/>
    <trip id="veh234" type="veh_passenger" depart="954.12" departLane="best" from="202548488#7" to="-600354690#0"/>
    <trip id="veh235" type="veh_passenger" depart="958.19" departLane="best" from="1101850037#1" to="33884442#10"/>
    <trip id="veh236" type="veh_passenger" depart="962.27" departLane="best" from="984550390#0" to="267676656#1"/>
    <trip id="veh237" type="veh_passenger" depart="966.35" departLane="best" from="462356798#7" to="592012033#16"/>
    <trip id="veh238" type="veh_passenger" depart="970.42" departLane="best" from="978085964#17" to="174762070#1"/>
    <trip id="veh239" type="veh_passenger" depart="974.50" departLane="best" from="-1101850037#1" to="1132385603#9"/>
    <trip id="veh240" type="veh_passenger" depart="978.58" departLane="best" from="465066430#3" to="465069432#1"/>
    <trip id="veh241" type="veh_passenger" depart="982.66" departLane="best" from="34634615#1" to="174762073#1"/>
    <trip id="veh242" type="veh_passenger" depart="986.73" departLane="best" departSpeed="max" from="46835724#0" to="476097674#1"/>
    <trip id="veh243" type="veh_passenger" depart="990.81" departLane="best" from="-1101850040#1" to="37902558#1"/>
    <trip id="veh244" type="veh_passenger" depart="994.89" departLane="best" from="592012033#15" to="1021559402#2"/>
    <trip id="veh245" type="veh_passenger" depart="998.97" departLane="best" from="772134676#1" to="978085964#5"/>
    <trip id="veh246" type="veh_passenger" depart="1003.04" departLane="best" departSpeed="max" from="-37902556#1" to="1101850040#1"/>