<trips>
    <vType id="veh_passenger" vClass="passenger" />
    <trip id="trip1" type="veh_passenger" depart="0" from="BL_Start" to="TR_End" />
</trips>